
  Mt7.00  01062308342D

 34 39  0  0  0  0  0  0  0  0999 V2000
    8.2866    0.0000    0.0000 C   0  0  0  0  0  0  0  0  0  0  0  0
    7.8798    0.9135    0.0000 N   0  0  0  0  0  0  0  0  0  0  0  0
    8.4676    1.7226    0.0000 C   0  0  0  0  0  0  0  0  0  0  0  0
    8.0609    2.6361    0.0000 C   0  0  0  0  0  0  0  0  0  0  0  0
    7.0664    2.7406    0.0000 N   0  0  0  0  0  0  0  0  0  0  0  0
    6.4786    1.9316    0.0000 C   0  0  0  0  0  0  0  0  0  0  0  0
    6.8853    1.0181    0.0000 C   0  0  0  0  0  0  0  0  0  0  0  0
    6.6596    3.6542    0.0000 C   0  0  0  0  0  0  0  0  0  0  0  0
    7.2474    4.4632    0.0000 C   0  0  0  0  0  0  0  0  0  0  0  0
    6.8407    5.3767    0.0000 C   0  0  0  0  0  0  0  0  0  0  0  0
    5.8462    5.4813    0.0000 C   0  0  0  0  0  0  0  0  0  0  0  0
    5.2584    6.2903    0.0000 N   0  0  0  0  0  0  0  0  0  0  0  0
    4.3073    5.9813    0.0000 C   0  0  0  0  0  0  0  0  0  0  0  0
    4.3073    4.9813    0.0000 N   0  0  0  0  0  0  0  0  0  0  0  0
    5.2584    4.6723    0.0000 C   0  0  0  0  0  0  0  0  0  0  0  0
    5.6651    3.7587    0.0000 C   0  0  0  0  0  0  0  0  0  0  0  0
    3.4983    6.5691    0.0000 C   0  0  0  0  0  0  0  0  0  0  0  0
    3.4983    7.5691    0.0000 N   0  0  0  0  0  0  0  0  0  0  0  0
    2.5472    7.8781    0.0000 N   0  0  0  0  0  0  0  0  0  0  0  0
    1.9595    7.0691    0.0000 C   0  0  0  0  0  0  0  0  0  0  0  0
    2.5472    6.2600    0.0000 C   0  0  0  0  0  0  0  0  0  0  0  0
    2.2382    5.3090    0.0000 C   0  0  0  0  0  0  0  0  0  0  0  0
    1.2601    5.1011    0.0000 C   0  0  0  0  0  0  0  0  0  0  0  0
    0.9511    4.1500    0.0000 C   0  0  0  0  0  0  0  0  0  0  0  0
    0.0000    3.8410    0.0000 C   0  0  0  0  0  0  0  0  0  0  0  0
    0.0000    2.8410    0.0000 N   0  0  0  0  0  0  0  0  0  0  0  0
    0.9511    2.5320    0.0000 N   0  0  0  0  0  0  0  0  0  0  0  0
    1.5388    3.3410    0.0000 C   0  0  0  0  0  0  0  0  0  0  0  0
    2.5388    3.3410    0.0000 C   0  0  0  0  0  0  0  0  0  0  0  0
    3.0388    2.4750    0.0000 C   0  0  0  0  0  0  0  0  0  0  0  0
    4.0388    2.4750    0.0000 C   0  0  0  0  0  0  0  0  0  0  0  0
    4.5388    3.3410    0.0000 C   0  0  0  0  0  0  0  0  0  0  0  0
    4.0388    4.2070    0.0000 C   0  0  0  0  0  0  0  0  0  0  0  0
    3.0388    4.2070    0.0000 C   0  0  0  0  0  0  0  0  0  0  0  0
  1  2  1  0  0  0  0
  2  3  1  0  0  0  0
  3  4  1  0  0  0  0
  4  5  1  0  0  0  0
  5  6  1  0  0  0  0
  6  7  1  0  0  0  0
  7  2  1  0  0  0  0
  5  8  1  0  0  0  0
  8  9  2  0  0  0  0
  9 10  1  0  0  0  0
 10 11  2  0  0  0  0
 11 12  1  0  0  0  0
 12 13  1  0  0  0  0
 13 14  2  0  0  0  0
 14 15  1  0  0  0  0
 15 11  1  0  0  0  0
 15 16  2  0  0  0  0
 16  8  1  0  0  0  0
 13 17  1  0  0  0  0
 17 18  2  0  0  0  0
 18 19  1  0  0  0  0
 19 20  1  0  0  0  0
 20 21  2  0  0  0  0
 21 17  1  0  0  0  0
 21 22  1  0  0  0  0
 22 23  2  0  0  0  0
 23 24  1  0  0  0  0
 24 25  2  0  0  0  0
 25 26  1  0  0  0  0
 26 27  1  0  0  0  0
 27 28  2  0  0  0  0
 28 24  1  0  0  0  0
 28 29  1  0  0  0  0
 29 30  1  0  0  0  0
 30 31  1  0  0  0  0
 31 32  1  0  0  0  0
 32 33  1  0  0  0  0
 33 34  1  0  0  0  0
 34 29  1  0  0  0  0
M  END
> <ID>
L01

> <FEP+ dG (kcal/mol)>
-10.97

> <Experimental dG (kcal/mol)>
-11.2

> <System Name>
JAK3

> <Similarity to L01 Reference (FCFP_4)>
1

> <SMILES>
CN1CCN(CC1)c2ccc3[nH]c(nc3c2)c4n[nH]cc4/C=C/c5c[nH]nc5C6CCCCC6

> <Net Charge of Ligand in FEP/MELD>
1

$$$$

  Mt7.00  01062308342D

 30 34  0  0  0  0  0  0  0  0999 V2000
    7.0907    3.0611    0.0000 C   0  0  0  0  0  0  0  0  0  0  0  0
    6.1126    2.8532    0.0000 C   0  0  0  0  0  0  0  0  0  0  0  0
    5.8036    1.9021    0.0000 C   0  0  0  0  0  0  0  0  0  0  0  0
    4.8254    1.6942    0.0000 C   0  0  0  0  0  0  0  0  0  0  0  0
    4.5164    0.7431    0.0000 C   0  0  0  0  0  0  0  0  0  0  0  0
    5.1855    0.0000    0.0000 C   0  0  0  0  0  0  0  0  0  0  0  0
    6.1637    0.2079    0.0000 N   0  0  0  0  0  0  0  0  0  0  0  0
    6.4727    1.1590    0.0000 C   0  0  0  0  0  0  0  0  0  0  0  0
    7.3997    4.0121    0.0000 C   0  0  0  0  0  0  0  0  0  0  0  0
    8.3508    4.3212    0.0000 C   0  0  0  0  0  0  0  0  0  0  0  0
    8.3508    5.3212    0.0000 N   0  0  0  0  0  0  0  0  0  0  0  0
    7.3997    5.6302    0.0000 N   0  0  0  0  0  0  0  0  0  0  0  0
    6.8120    4.8212    0.0000 C   0  0  0  0  0  0  0  0  0  0  0  0
    5.8120    4.8212    0.0000 C   0  0  0  0  0  0  0  0  0  0  0  0
    5.2242    5.6302    0.0000 C   0  0  0  0  0  0  0  0  0  0  0  0
    4.2731    5.3212    0.0000 C   0  0  0  0  0  0  0  0  0  0  0  0
    3.4071    5.8212    0.0000 C   0  0  0  0  0  0  0  0  0  0  0  0
    2.5411    5.3212    0.0000 C   0  0  0  0  0  0  0  0  0  0  0  0
    2.5411    4.3212    0.0000 C   0  0  0  0  0  0  0  0  0  0  0  0
    3.4071    3.8212    0.0000 C   0  0  0  0  0  0  0  0  0  0  0  0
    4.2731    4.3212    0.0000 C   0  0  0  0  0  0  0  0  0  0  0  0
    5.2242    4.0121    0.0000 N   0  0  0  0  0  0  0  0  0  0  0  0
    1.6750    5.8212    0.0000 O   0  0  0  0  0  0  0  0  0  0  0  0
    1.6750    6.8212    0.0000 C   0  0  0  0  0  0  0  0  0  0  0  0
    0.8090    7.3212    0.0000 C   0  0  0  0  0  0  0  0  0  0  0  0
    0.8090    8.3212    0.0000 N   0  0  0  0  0  0  0  0  0  0  0  0
    1.6180    8.9089    0.0000 C   0  0  0  0  0  0  0  0  0  0  0  0
    1.3090    9.8600    0.0000 C   0  0  0  0  0  0  0  0  0  0  0  0
    0.3090    9.8600    0.0000 C   0  0  0  0  0  0  0  0  0  0  0  0
    0.0000    8.9089    0.0000 C   0  0  0  0  0  0  0  0  0  0  0  0
  1  2  2  0  0  0  0
  2  3  1  0  0  0  0
  3  4  2  0  0  0  0
  4  5  1  0  0  0  0
  5  6  2  0  0  0  0
  6  7  1  0  0  0  0
  7  8  2  0  0  0  0
  8  3  1  0  0  0  0
  1  9  1  0  0  0  0
  9 10  2  0  0  0  0
 10 11  1  0  0  0  0
 11 12  1  0  0  0  0
 12 13  2  0  0  0  0
 13  9  1  0  0  0  0
 13 14  1  0  0  0  0
 14 15  2  0  0  0  0
 15 16  1  0  0  0  0
 16 17  2  0  0  0  0
 17 18  1  0  0  0  0
 18 19  2  0  0  0  0
 19 20  1  0  0  0  0
 20 21  2  0  0  0  0
 21 16  1  0  0  0  0
 21 22  1  0  0  0  0
 22 14  1  0  0  0  0
 18 23  1  0  0  0  0
 23 24  1  0  0  0  0
 24 25  1  0  0  0  0
 25 26  1  0  0  0  0
 26 27  1  0  0  0  0
 27 28  1  0  0  0  0
 28 29  1  0  0  0  0
 29 30  1  0  0  0  0
 30 26  1  0  0  0  0
M  END
> <ID>
L02

> <FEP+ dG (kcal/mol)>
-9.85

> <Experimental dG (kcal/mol)>
-10.74

> <System Name>
JAK3

> <Similarity to L01 Reference (FCFP_4)>
0.386667

> <SMILES>
C(=C/c1cccnc1)/c2c[nH]nc2c3cc4cc(ccc4[nH]3)OCCN5CCCC5

> <Net Charge of Ligand in FEP/MELD>
1

$$$$

  Mt7.00  01062308342D

 29 33  0  0  0  0  0  0  0  0999 V2000
    8.0609    0.1611    0.0000 C   0  0  0  0  0  0  0  0  0  0  0  0
    7.0664    0.2657    0.0000 O   0  0  0  0  0  0  0  0  0  0  0  0
    6.6596    1.1792    0.0000 C   0  0  0  0  0  0  0  0  0  0  0  0
    7.2474    1.9882    0.0000 C   0  0  0  0  0  0  0  0  0  0  0  0
    6.8407    2.9018    0.0000 C   0  0  0  0  0  0  0  0  0  0  0  0
    5.8462    3.0063    0.0000 C   0  0  0  0  0  0  0  0  0  0  0  0
    5.2584    3.8153    0.0000 N   0  0  0  0  0  0  0  0  0  0  0  0
    4.3073    3.5063    0.0000 C   0  0  0  0  0  0  0  0  0  0  0  0
    4.3073    2.5063    0.0000 N   0  0  0  0  0  0  0  0  0  0  0  0
    5.2584    2.1973    0.0000 C   0  0  0  0  0  0  0  0  0  0  0  0
    5.6651    1.2837    0.0000 C   0  0  0  0  0  0  0  0  0  0  0  0
    3.4983    4.0941    0.0000 C   0  0  0  0  0  0  0  0  0  0  0  0
    3.4983    5.0941    0.0000 N   0  0  0  0  0  0  0  0  0  0  0  0
    2.5472    5.4031    0.0000 N   0  0  0  0  0  0  0  0  0  0  0  0
    1.9595    4.5941    0.0000 C   0  0  0  0  0  0  0  0  0  0  0  0
    2.5472    3.7851    0.0000 C   0  0  0  0  0  0  0  0  0  0  0  0
    2.2382    2.8340    0.0000 C   0  0  0  0  0  0  0  0  0  0  0  0
    1.2601    2.6261    0.0000 C   0  0  0  0  0  0  0  0  0  0  0  0
    0.9511    1.6750    0.0000 C   0  0  0  0  0  0  0  0  0  0  0  0
    0.0000    1.3660    0.0000 C   0  0  0  0  0  0  0  0  0  0  0  0
    0.0000    0.3660    0.0000 N   0  0  0  0  0  0  0  0  0  0  0  0
    0.9511    0.0570    0.0000 N   0  0  0  0  0  0  0  0  0  0  0  0
    1.5388    0.8660    0.0000 C   0  0  0  0  0  0  0  0  0  0  0  0
    2.5388    0.8660    0.0000 C   0  0  0  0  0  0  0  0  0  0  0  0
    3.0388    0.0000    0.0000 C   0  0  0  0  0  0  0  0  0  0  0  0
    4.0388    0.0000    0.0000 C   0  0  0  0  0  0  0  0  0  0  0  0
    4.5388    0.8660    0.0000 C   0  0  0  0  0  0  0  0  0  0  0  0
    4.0388    1.7321    0.0000 C   0  0  0  0  0  0  0  0  0  0  0  0
    3.0388    1.7321    0.0000 C   0  0  0  0  0  0  0  0  0  0  0  0
  1  2  1  0  0  0  0
  2  3  1  0  0  0  0
  3  4  2  0  0  0  0
  4  5  1  0  0  0  0
  5  6  2  0  0  0  0
  6  7  1  0  0  0  0
  7  8  2  0  0  0  0
  8  9  1  0  0  0  0
  9 10  1  0  0  0  0
 10  6  1  0  0  0  0
 10 11  2  0  0  0  0
 11  3  1  0  0  0  0
  8 12  1  0  0  0  0
 12 13  2  0  0  0  0
 13 14  1  0  0  0  0
 14 15  1  0  0  0  0
 15 16  2  0  0  0  0
 16 12  1  0  0  0  0
 16 17  1  0  0  0  0
 17 18  2  0  0  0  0
 18 19  1  0  0  0  0
 19 20  1  0  0  0  0
 20 21  2  0  0  0  0
 21 22  1  0  0  0  0
 22 23  1  0  0  0  0
 23 19  2  0  0  0  0
 23 24  1  0  0  0  0
 24 25  1  0  0  0  0
 25 26  1  0  0  0  0
 26 27  1  0  0  0  0
 27 28  1  0  0  0  0
 28 29  1  0  0  0  0
 29 24  1  0  0  0  0
M  END
> <ID>
L03

> <FEP+ dG (kcal/mol)>
-10.31

> <Experimental dG (kcal/mol)>
-10.6

> <System Name>
JAK3

> <Similarity to L01 Reference (FCFP_4)>
0.515152

> <SMILES>
COc1ccc2nc([nH]c2c1)c3n[nH]cc3/C=C/c4cn[nH]c4C5CCCCC5

> <Net Charge of Ligand in FEP/MELD>
0

$$$$

  Mt7.00  01062308342D

 27 31  0  0  0  0  0  0  0  0999 V2000
    3.5715    2.6261    0.0000 C   0  0  0  0  0  0  0  0  0  0  0  0
    4.5497    2.8340    0.0000 C   0  0  0  0  0  0  0  0  0  0  0  0
    4.8587    3.7851    0.0000 C   0  0  0  0  0  0  0  0  0  0  0  0
    5.8097    4.0941    0.0000 C   0  0  0  0  0  0  0  0  0  0  0  0
    5.8097    5.0941    0.0000 N   0  0  0  0  0  0  0  0  0  0  0  0
    4.8587    5.4031    0.0000 N   0  0  0  0  0  0  0  0  0  0  0  0
    4.2709    4.5941    0.0000 C   0  0  0  0  0  0  0  0  0  0  0  0
    3.2709    4.5941    0.0000 C   0  0  0  0  0  0  0  0  0  0  0  0
    2.6831    5.4031    0.0000 N   0  0  0  0  0  0  0  0  0  0  0  0
    1.7321    5.0941    0.0000 C   0  0  0  0  0  0  0  0  0  0  0  0
    0.8660    5.5941    0.0000 C   0  0  0  0  0  0  0  0  0  0  0  0
    0.0000    5.0941    0.0000 C   0  0  0  0  0  0  0  0  0  0  0  0
    0.0000    4.0941    0.0000 C   0  0  0  0  0  0  0  0  0  0  0  0
    0.8660    3.5941    0.0000 C   0  0  0  0  0  0  0  0  0  0  0  0
    1.7321    4.0941    0.0000 C   0  0  0  0  0  0  0  0  0  0  0  0
    2.6831    3.7851    0.0000 N   0  0  0  0  0  0  0  0  0  0  0  0
    3.2625    1.6750    0.0000 C   0  0  0  0  0  0  0  0  0  0  0  0
    2.3114    1.3660    0.0000 C   0  0  0  0  0  0  0  0  0  0  0  0
    2.3114    0.3660    0.0000 N   0  0  0  0  0  0  0  0  0  0  0  0
    3.2625    0.0570    0.0000 N   0  0  0  0  0  0  0  0  0  0  0  0
    3.8503    0.8660    0.0000 C   0  0  0  0  0  0  0  0  0  0  0  0
    4.8503    0.8660    0.0000 C   0  0  0  0  0  0  0  0  0  0  0  0
    5.3503    0.0000    0.0000 C   0  0  0  0  0  0  0  0  0  0  0  0
    6.3503    0.0000    0.0000 C   0  0  0  0  0  0  0  0  0  0  0  0
    6.8503    0.8660    0.0000 C   0  0  0  0  0  0  0  0  0  0  0  0
    6.3503    1.7321    0.0000 C   0  0  0  0  0  0  0  0  0  0  0  0
    5.3503    1.7321    0.0000 C   0  0  0  0  0  0  0  0  0  0  0  0
  1  2  2  0  0  0  0
  2  3  1  0  0  0  0
  3  4  2  0  0  0  0
  4  5  1  0  0  0  0
  5  6  1  0  0  0  0
  6  7  2  0  0  0  0
  7  3  1  0  0  0  0
  7  8  1  0  0  0  0
  8  9  2  0  0  0  0
  9 10  1  0  0  0  0
 10 11  2  0  0  0  0
 11 12  1  0  0  0  0
 12 13  2  0  0  0  0
 13 14  1  0  0  0  0
 14 15  2  0  0  0  0
 15 10  1  0  0  0  0
 15 16  1  0  0  0  0
 16  8  1  0  0  0  0
  1 17  1  0  0  0  0
 17 18  1  0  0  0  0
 18 19  2  0  0  0  0
 19 20  1  0  0  0  0
 20 21  1  0  0  0  0
 21 17  2  0  0  0  0
 21 22  1  0  0  0  0
 22 23  1  0  0  0  0
 23 24  1  0  0  0  0
 24 25  1  0  0  0  0
 25 26  1  0  0  0  0
 26 27  1  0  0  0  0
 27 22  1  0  0  0  0
M  END
> <ID>
L04

> <FEP+ dG (kcal/mol)>
-9.59

> <Experimental dG (kcal/mol)>
-10.5

> <System Name>
JAK3

> <Similarity to L01 Reference (FCFP_4)>
0.516129

> <SMILES>
C(=C/c1c[nH]nc1c2nc3ccccc3[nH]2)/c4cn[nH]c4C5CCCCC5

> <Net Charge of Ligand in FEP/MELD>
0

$$$$

  Mt7.00  01062308342D

 36 42  0  0  0  0  0  0  0  0999 V2000
   11.4075    0.0000    0.0000 C   0  0  0  0  0  0  0  0  0  0  0  0
   11.1996    0.9781    0.0000 N   0  0  0  0  0  0  0  0  0  0  0  0
   11.8687    1.7213    0.0000 C   0  0  0  0  0  0  0  0  0  0  0  0
   11.3687    2.5873    0.0000 C   0  0  0  0  0  0  0  0  0  0  0  0
   10.3905    2.3794    0.0000 C   0  0  0  0  0  0  0  0  0  0  0  0
    9.4770    2.7861    0.0000 C   0  0  0  0  0  0  0  0  0  0  0  0
    8.8079    2.0430    0.0000 N   0  0  0  0  0  0  0  0  0  0  0  0
    9.3079    1.1770    0.0000 C   0  0  0  0  0  0  0  0  0  0  0  0
   10.2860    1.3849    0.0000 C   0  0  0  0  0  0  0  0  0  0  0  0
    7.8133    2.1475    0.0000 C   0  0  0  0  0  0  0  0  0  0  0  0
    7.2256    1.3385    0.0000 O   0  0  0  0  0  0  0  0  0  0  0  0
    7.4066    3.0611    0.0000 C   0  0  0  0  0  0  0  0  0  0  0  0
    7.9944    3.8701    0.0000 C   0  0  0  0  0  0  0  0  0  0  0  0
    7.5877    4.7836    0.0000 C   0  0  0  0  0  0  0  0  0  0  0  0
    6.5931    4.8882    0.0000 C   0  0  0  0  0  0  0  0  0  0  0  0
    6.0054    5.6972    0.0000 N   0  0  0  0  0  0  0  0  0  0  0  0
    5.0543    5.3882    0.0000 C   0  0  0  0  0  0  0  0  0  0  0  0
    5.0543    4.3882    0.0000 C   0  0  0  0  0  0  0  0  0  0  0  0
    6.0054    4.0791    0.0000 C   0  0  0  0  0  0  0  0  0  0  0  0
    6.4121    3.1656    0.0000 C   0  0  0  0  0  0  0  0  0  0  0  0
    4.2453    5.9759    0.0000 C   0  0  0  0  0  0  0  0  0  0  0  0
    4.3498    6.9705    0.0000 N   0  0  0  0  0  0  0  0  0  0  0  0
    3.5408    7.5583    0.0000 C   0  0  0  0  0  0  0  0  0  0  0  0
    2.6272    7.1515    0.0000 C   0  0  0  0  0  0  0  0  0  0  0  0
    2.5227    6.1570    0.0000 C   0  0  0  0  0  0  0  0  0  0  0  0
    3.3317    5.5692    0.0000 N   0  0  0  0  0  0  0  0  0  0  0  0
    1.6092    5.7503    0.0000 C   0  0  0  0  0  0  0  0  0  0  0  0
    0.7431    6.2503    0.0000 C   0  0  0  0  0  0  0  0  0  0  0  0
    0.0000    5.5811    0.0000 N   0  0  0  0  0  0  0  0  0  0  0  0
    0.4067    4.6676    0.0000 N   0  0  0  0  0  0  0  0  0  0  0  0
    1.4013    4.7721    0.0000 C   0  0  0  0  0  0  0  0  0  0  0  0
    2.0704    4.0290    0.0000 C   0  0  0  0  0  0  0  0  0  0  0  0
    1.8625    3.0508    0.0000 C   0  0  0  0  0  0  0  0  0  0  0  0
    2.7285    2.5508    0.0000 C   0  0  0  0  0  0  0  0  0  0  0  0
    3.4716    3.2200    0.0000 C   0  0  0  0  0  0  0  0  0  0  0  0
    3.0649    4.1335    0.0000 C   0  0  0  0  0  0  0  0  0  0  0  0
  1  2  1  0  0  0  0
  2  3  1  0  0  0  0
  3  4  1  0  0  0  0
  4  5  1  0  0  0  0
  5  6  1  0  0  0  0
  6  7  1  0  0  0  0
  7  8  1  0  0  0  0
  8  9  1  0  0  0  0
  9  2  1  0  0  0  0
  9  5  1  0  0  0  0
  7 10  1  0  0  0  0
 10 11  2  0  0  0  0
 10 12  1  0  0  0  0
 12 13  2  0  0  0  0
 13 14  1  0  0  0  0
 14 15  2  0  0  0  0
 15 16  1  0  0  0  0
 16 17  1  0  0  0  0
 17 18  2  0  0  0  0
 18 19  1  0  0  0  0
 19 15  1  0  0  0  0
 19 20  2  0  0  0  0
 20 12  1  0  0  0  0
 17 21  1  0  0  0  0
 21 22  2  0  0  0  0
 22 23  1  0  0  0  0
 23 24  2  0  0  0  0
 24 25  1  0  0  0  0
 25 26  2  0  0  0  0
 26 21  1  0  0  0  0
 25 27  1  0  0  0  0
 27 28  1  0  0  0  0
 28 29  2  0  0  0  0
 29 30  1  0  0  0  0
 30 31  1  0  0  0  0
 31 27  2  0  0  0  0
 31 32  1  0  0  0  0
 32 33  1  0  0  0  0
 33 34  1  0  0  0  0
 34 35  1  0  0  0  0
 35 36  1  0  0  0  0
 36 32  1  0  0  0  0
M  END
> <ID>
L06

> <FEP+ dG (kcal/mol)>
-9.25

> <Experimental dG (kcal/mol)>
-10.1

> <System Name>
JAK3

> <Similarity to L01 Reference (FCFP_4)>
0.25

> <SMILES>
CN1CCC2CN(CC12)C(=O)c3ccc4[nH]c(cc4c3)c5nccc(n5)c6cn[nH]c6C7CCCC7

> <Net Charge of Ligand in FEP/MELD>
1

$$$$

  Mt7.00  01062308342D

 33 38  0  0  0  0  0  0  0  0999 V2000
    8.4052    0.6691    0.0000 C   0  0  0  0  0  0  0  0  0  0  0  0
    9.1484    0.0000    0.0000 N   0  0  0  0  0  0  0  0  0  0  0  0
   10.0144    0.5000    0.0000 N   0  0  0  0  0  0  0  0  0  0  0  0
    9.8065    1.4781    0.0000 C   0  0  0  0  0  0  0  0  0  0  0  0
    8.8120    1.5827    0.0000 C   0  0  0  0  0  0  0  0  0  0  0  0
    8.3120    2.4487    0.0000 C   0  0  0  0  0  0  0  0  0  0  0  0
    8.8120    3.3147    0.0000 C   0  0  0  0  0  0  0  0  0  0  0  0
    8.3120    4.1808    0.0000 C   0  0  0  0  0  0  0  0  0  0  0  0
    7.3120    4.1808    0.0000 N   0  0  0  0  0  0  0  0  0  0  0  0
    6.8120    3.3147    0.0000 C   0  0  0  0  0  0  0  0  0  0  0  0
    7.3120    2.4487    0.0000 N   0  0  0  0  0  0  0  0  0  0  0  0
    5.8120    3.3147    0.0000 C   0  0  0  0  0  0  0  0  0  0  0  0
    5.2242    4.1237    0.0000 C   0  0  0  0  0  0  0  0  0  0  0  0
    4.2731    3.8147    0.0000 C   0  0  0  0  0  0  0  0  0  0  0  0
    3.4071    4.3147    0.0000 C   0  0  0  0  0  0  0  0  0  0  0  0
    2.5411    3.8147    0.0000 C   0  0  0  0  0  0  0  0  0  0  0  0
    2.5411    2.8147    0.0000 C   0  0  0  0  0  0  0  0  0  0  0  0
    3.4071    2.3147    0.0000 C   0  0  0  0  0  0  0  0  0  0  0  0
    4.2731    2.8147    0.0000 C   0  0  0  0  0  0  0  0  0  0  0  0
    5.2242    2.5057    0.0000 N   0  0  0  0  0  0  0  0  0  0  0  0
    1.6750    4.3147    0.0000 O   0  0  0  0  0  0  0  0  0  0  0  0
    1.6750    5.3147    0.0000 C   0  0  0  0  0  0  0  0  0  0  0  0
    0.8090    5.8147    0.0000 C   0  0  0  0  0  0  0  0  0  0  0  0
    0.8090    6.8147    0.0000 N   0  0  0  0  0  0  0  0  0  0  0  0
    1.6180    7.4025    0.0000 C   0  0  0  0  0  0  0  0  0  0  0  0
    1.3090    8.3536    0.0000 C   0  0  0  0  0  0  0  0  0  0  0  0
    0.3090    8.3536    0.0000 C   0  0  0  0  0  0  0  0  0  0  0  0
    0.0000    7.4025    0.0000 C   0  0  0  0  0  0  0  0  0  0  0  0
   10.4756    2.2213    0.0000 C   0  0  0  0  0  0  0  0  0  0  0  0
   11.4701    2.1168    0.0000 C   0  0  0  0  0  0  0  0  0  0  0  0
   11.8769    3.0303    0.0000 C   0  0  0  0  0  0  0  0  0  0  0  0
   11.1337    3.6994    0.0000 C   0  0  0  0  0  0  0  0  0  0  0  0
   10.2677    3.1994    0.0000 C   0  0  0  0  0  0  0  0  0  0  0  0
  1  2  1  0  0  0  0
  2  3  1  0  0  0  0
  3  4  2  0  0  0  0
  4  5  1  0  0  0  0
  5  1  2  0  0  0  0
  5  6  1  0  0  0  0
  6  7  2  0  0  0  0
  7  8  1  0  0  0  0
  8  9  2  0  0  0  0
  9 10  1  0  0  0  0
 10 11  2  0  0  0  0
 11  6  1  0  0  0  0
 10 12  1  0  0  0  0
 12 13  2  0  0  0  0
 13 14  1  0  0  0  0
 14 15  2  0  0  0  0
 15 16  1  0  0  0  0
 16 17  2  0  0  0  0
 17 18  1  0  0  0  0
 18 19  2  0  0  0  0
 19 14  1  0  0  0  0
 19 20  1  0  0  0  0
 20 12  1  0  0  0  0
 16 21  1  0  0  0  0
 21 22  1  0  0  0  0
 22 23  1  0  0  0  0
 23 24  1  0  0  0  0
 24 25  1  0  0  0  0
 25 26  1  0  0  0  0
 26 27  1  0  0  0  0
 27 28  1  0  0  0  0
 28 24  1  0  0  0  0
  4 29  1  0  0  0  0
 29 30  1  0  0  0  0
 30 31  1  0  0  0  0
 31 32  1  0  0  0  0
 32 33  1  0  0  0  0
 33 29  1  0  0  0  0
M  END
> <ID>
L07

> <FEP+ dG (kcal/mol)>
-11.11

> <Experimental dG (kcal/mol)>
-9.9

> <System Name>
JAK3

> <Similarity to L01 Reference (FCFP_4)>
0.367089

> <SMILES>
c1[nH]nc(c1c2ccnc(n2)c3cc4cc(ccc4[nH]3)OCCN5CCCC5)C6CCCC6

> <Net Charge of Ligand in FEP/MELD>
1

$$$$

  Mt7.00  01062308342D

 34 39  0  0  0  0  0  0  0  0999 V2000
   11.7914    0.7045    0.0000 C   0  0  0  0  0  0  0  0  0  0  0  0
   10.7969    0.8090    0.0000 N   0  0  0  0  0  0  0  0  0  0  0  0
   10.3902    1.7226    0.0000 C   0  0  0  0  0  0  0  0  0  0  0  0
    9.3957    1.8271    0.0000 C   0  0  0  0  0  0  0  0  0  0  0  0
    8.8079    1.0181    0.0000 N   0  0  0  0  0  0  0  0  0  0  0  0
    9.2146    0.1045    0.0000 C   0  0  0  0  0  0  0  0  0  0  0  0
   10.2091    0.0000    0.0000 C   0  0  0  0  0  0  0  0  0  0  0  0
    7.8133    1.1226    0.0000 C   0  0  0  0  0  0  0  0  0  0  0  0
    7.2256    0.3136    0.0000 O   0  0  0  0  0  0  0  0  0  0  0  0
    7.4066    2.0361    0.0000 C   0  0  0  0  0  0  0  0  0  0  0  0
    7.9944    2.8452    0.0000 C   0  0  0  0  0  0  0  0  0  0  0  0
    7.5877    3.7587    0.0000 C   0  0  0  0  0  0  0  0  0  0  0  0
    6.5931    3.8632    0.0000 C   0  0  0  0  0  0  0  0  0  0  0  0
    6.0054    4.6723    0.0000 N   0  0  0  0  0  0  0  0  0  0  0  0
    5.0543    4.3632    0.0000 C   0  0  0  0  0  0  0  0  0  0  0  0
    5.0543    3.3632    0.0000 C   0  0  0  0  0  0  0  0  0  0  0  0
    6.0054    3.0542    0.0000 C   0  0  0  0  0  0  0  0  0  0  0  0
    6.4121    2.1407    0.0000 C   0  0  0  0  0  0  0  0  0  0  0  0
    4.2453    4.9510    0.0000 C   0  0  0  0  0  0  0  0  0  0  0  0
    4.3498    5.9455    0.0000 N   0  0  0  0  0  0  0  0  0  0  0  0
    3.5408    6.5333    0.0000 C   0  0  0  0  0  0  0  0  0  0  0  0
    2.6272    6.1266    0.0000 C   0  0  0  0  0  0  0  0  0  0  0  0
    2.5227    5.1321    0.0000 C   0  0  0  0  0  0  0  0  0  0  0  0
    3.3317    4.5443    0.0000 N   0  0  0  0  0  0  0  0  0  0  0  0
    1.6092    4.7253    0.0000 C   0  0  0  0  0  0  0  0  0  0  0  0
    0.7431    5.2253    0.0000 C   0  0  0  0  0  0  0  0  0  0  0  0
    0.0000    4.5562    0.0000 N   0  0  0  0  0  0  0  0  0  0  0  0
    0.4067    3.6427    0.0000 N   0  0  0  0  0  0  0  0  0  0  0  0
    1.4013    3.7472    0.0000 C   0  0  0  0  0  0  0  0  0  0  0  0
    2.0704    3.0040    0.0000 C   0  0  0  0  0  0  0  0  0  0  0  0
    1.8625    2.0259    0.0000 C   0  0  0  0  0  0  0  0  0  0  0  0
    2.7285    1.5259    0.0000 C   0  0  0  0  0  0  0  0  0  0  0  0
    3.4716    2.1950    0.0000 C   0  0  0  0  0  0  0  0  0  0  0  0
    3.0649    3.1086    0.0000 C   0  0  0  0  0  0  0  0  0  0  0  0
  1  2  1  0  0  0  0
  2  3  1  0  0  0  0
  3  4  1  0  0  0  0
  4  5  1  0  0  0  0
  5  6  1  0  0  0  0
  6  7  1  0  0  0  0
  7  2  1  0  0  0  0
  5  8  1  0  0  0  0
  8  9  2  0  0  0  0
  8 10  1  0  0  0  0
 10 11  2  0  0  0  0
 11 12  1  0  0  0  0
 12 13  2  0  0  0  0
 13 14  1  0  0  0  0
 14 15  1  0  0  0  0
 15 16  2  0  0  0  0
 16 17  1  0  0  0  0
 17 13  1  0  0  0  0
 17 18  2  0  0  0  0
 18 10  1  0  0  0  0
 15 19  1  0  0  0  0
 19 20  2  0  0  0  0
 20 21  1  0  0  0  0
 21 22  2  0  0  0  0
 22 23  1  0  0  0  0
 23 24  2  0  0  0  0
 24 19  1  0  0  0  0
 23 25  1  0  0  0  0
 25 26  1  0  0  0  0
 26 27  2  0  0  0  0
 27 28  1  0  0  0  0
 28 29  1  0  0  0  0
 29 25  2  0  0  0  0
 29 30  1  0  0  0  0
 30 31  1  0  0  0  0
 31 32  1  0  0  0  0
 32 33  1  0  0  0  0
 33 34  1  0  0  0  0
 34 30  1  0  0  0  0
M  END
> <ID>
L08

> <FEP+ dG (kcal/mol)>
-9.96

> <Experimental dG (kcal/mol)>
-9.8

> <System Name>
JAK3

> <Similarity to L01 Reference (FCFP_4)>
0.297619

> <SMILES>
CN1CCN(CC1)C(=O)c2ccc3[nH]c(cc3c2)c4nccc(n4)c5cn[nH]c5C6CCCC6

> <Net Charge of Ligand in FEP/MELD>
1

$$$$

  Mt7.00  01062308342D

 34 39  0  0  0  0  0  0  0  0999 V2000
    8.4052    0.6691    0.0000 C   0  0  0  0  0  0  0  0  0  0  0  0
    9.1484    0.0000    0.0000 N   0  0  0  0  0  0  0  0  0  0  0  0
   10.0144    0.5000    0.0000 N   0  0  0  0  0  0  0  0  0  0  0  0
    9.8065    1.4781    0.0000 C   0  0  0  0  0  0  0  0  0  0  0  0
   10.4756    2.2213    0.0000 C   0  0  0  0  0  0  0  0  0  0  0  0
   11.4538    2.0134    0.0000 C   0  0  0  0  0  0  0  0  0  0  0  0
   11.8605    1.0998    0.0000 C   0  0  0  0  0  0  0  0  0  0  0  0
   12.8550    1.2044    0.0000 C   0  0  0  0  0  0  0  0  0  0  0  0
   13.0629    2.1825    0.0000 C   0  0  0  0  0  0  0  0  0  0  0  0
   12.1969    2.6825    0.0000 C   0  0  0  0  0  0  0  0  0  0  0  0
    8.8120    1.5827    0.0000 C   0  0  0  0  0  0  0  0  0  0  0  0
    8.3120    2.4487    0.0000 C   0  0  0  0  0  0  0  0  0  0  0  0
    8.8120    3.3147    0.0000 C   0  0  0  0  0  0  0  0  0  0  0  0
    8.3120    4.1808    0.0000 C   0  0  0  0  0  0  0  0  0  0  0  0
    7.3120    4.1808    0.0000 N   0  0  0  0  0  0  0  0  0  0  0  0
    6.8120    3.3147    0.0000 C   0  0  0  0  0  0  0  0  0  0  0  0
    7.3120    2.4487    0.0000 N   0  0  0  0  0  0  0  0  0  0  0  0
    5.8120    3.3147    0.0000 C   0  0  0  0  0  0  0  0  0  0  0  0
    5.2242    4.1237    0.0000 C   0  0  0  0  0  0  0  0  0  0  0  0
    4.2731    3.8147    0.0000 C   0  0  0  0  0  0  0  0  0  0  0  0
    3.4071    4.3147    0.0000 C   0  0  0  0  0  0  0  0  0  0  0  0
    2.5411    3.8147    0.0000 C   0  0  0  0  0  0  0  0  0  0  0  0
    2.5411    2.8147    0.0000 C   0  0  0  0  0  0  0  0  0  0  0  0
    3.4071    2.3147    0.0000 C   0  0  0  0  0  0  0  0  0  0  0  0
    4.2731    2.8147    0.0000 C   0  0  0  0  0  0  0  0  0  0  0  0
    5.2242    2.5057    0.0000 N   0  0  0  0  0  0  0  0  0  0  0  0
    1.6750    4.3147    0.0000 O   0  0  0  0  0  0  0  0  0  0  0  0
    1.6750    5.3147    0.0000 C   0  0  0  0  0  0  0  0  0  0  0  0
    0.8090    5.8147    0.0000 C   0  0  0  0  0  0  0  0  0  0  0  0
    0.8090    6.8147    0.0000 N   0  0  0  0  0  0  0  0  0  0  0  0
    1.6180    7.4025    0.0000 C   0  0  0  0  0  0  0  0  0  0  0  0
    1.3090    8.3536    0.0000 C   0  0  0  0  0  0  0  0  0  0  0  0
    0.3090    8.3536    0.0000 C   0  0  0  0  0  0  0  0  0  0  0  0
    0.0000    7.4025    0.0000 C   0  0  0  0  0  0  0  0  0  0  0  0
  1  2  1  0  0  0  0
  2  3  1  0  0  0  0
  3  4  2  0  0  0  0
  4  5  1  0  0  0  0
  5  6  1  0  0  0  0
  6  7  1  0  0  0  0
  7  8  1  0  0  0  0
  8  9  1  0  0  0  0
  9 10  1  0  0  0  0
 10  6  1  0  0  0  0
  4 11  1  0  0  0  0
 11  1  2  0  0  0  0
 11 12  1  0  0  0  0
 12 13  2  0  0  0  0
 13 14  1  0  0  0  0
 14 15  2  0  0  0  0
 15 16  1  0  0  0  0
 16 17  2  0  0  0  0
 17 12  1  0  0  0  0
 16 18  1  0  0  0  0
 18 19  2  0  0  0  0
 19 20  1  0  0  0  0
 20 21  2  0  0  0  0
 21 22  1  0  0  0  0
 22 23  2  0  0  0  0
 23 24  1  0  0  0  0
 24 25  2  0  0  0  0
 25 20  1  0  0  0  0
 25 26  1  0  0  0  0
 26 18  1  0  0  0  0
 22 27  1  0  0  0  0
 27 28  1  0  0  0  0
 28 29  1  0  0  0  0
 29 30  1  0  0  0  0
 30 31  1  0  0  0  0
 31 32  1  0  0  0  0
 32 33  1  0  0  0  0
 33 34  1  0  0  0  0
 34 30  1  0  0  0  0
M  END
> <ID>
L09

> <FEP+ dG (kcal/mol)>
-10.9

> <Experimental dG (kcal/mol)>
-9.7

> <System Name>
JAK3

> <Similarity to L01 Reference (FCFP_4)>
0.309524

> <SMILES>
c1[nH]nc(CC2CCCC2)c1c3ccnc(n3)c4cc5cc(ccc5[nH]4)OCCN6CCCC6

> <Net Charge of Ligand in FEP/MELD>
1

$$$$

  Mt7.00  01062308342D

 28 32  0  0  0  0  0  0  0  0999 V2000
    7.2256    0.0000    0.0000 O   0  0  0  0  0  0  0  0  0  0  0  0
    7.8133    0.8090    0.0000 C   0  0  0  0  0  0  0  0  0  0  0  0
    8.8079    0.7045    0.0000 O   0  0  0  0  0  0  0  0  0  0  0  0
    7.4066    1.7226    0.0000 C   0  0  0  0  0  0  0  0  0  0  0  0
    7.9944    2.5316    0.0000 C   0  0  0  0  0  0  0  0  0  0  0  0
    7.5877    3.4451    0.0000 C   0  0  0  0  0  0  0  0  0  0  0  0
    6.5931    3.5497    0.0000 C   0  0  0  0  0  0  0  0  0  0  0  0
    6.0054    4.3587    0.0000 N   0  0  0  0  0  0  0  0  0  0  0  0
    5.0543    4.0497    0.0000 C   0  0  0  0  0  0  0  0  0  0  0  0
    5.0543    3.0497    0.0000 C   0  0  0  0  0  0  0  0  0  0  0  0
    6.0054    2.7406    0.0000 C   0  0  0  0  0  0  0  0  0  0  0  0
    6.4121    1.8271    0.0000 C   0  0  0  0  0  0  0  0  0  0  0  0
    4.2453    4.6374    0.0000 C   0  0  0  0  0  0  0  0  0  0  0  0
    4.3498    5.6320    0.0000 N   0  0  0  0  0  0  0  0  0  0  0  0
    3.5408    6.2197    0.0000 C   0  0  0  0  0  0  0  0  0  0  0  0
    2.6272    5.8130    0.0000 C   0  0  0  0  0  0  0  0  0  0  0  0
    2.5227    4.8185    0.0000 C   0  0  0  0  0  0  0  0  0  0  0  0
    3.3317    4.2307    0.0000 N   0  0  0  0  0  0  0  0  0  0  0  0
    1.6092    4.4118    0.0000 C   0  0  0  0  0  0  0  0  0  0  0  0
    0.7431    4.9118    0.0000 C   0  0  0  0  0  0  0  0  0  0  0  0
    0.0000    4.2426    0.0000 N   0  0  0  0  0  0  0  0  0  0  0  0
    0.4067    3.3291    0.0000 N   0  0  0  0  0  0  0  0  0  0  0  0
    1.4013    3.4336    0.0000 C   0  0  0  0  0  0  0  0  0  0  0  0
    2.0704    2.6905    0.0000 C   0  0  0  0  0  0  0  0  0  0  0  0
    1.8625    1.7123    0.0000 C   0  0  0  0  0  0  0  0  0  0  0  0
    2.7285    1.2123    0.0000 C   0  0  0  0  0  0  0  0  0  0  0  0
    3.4716    1.8814    0.0000 C   0  0  0  0  0  0  0  0  0  0  0  0
    3.0649    2.7950    0.0000 C   0  0  0  0  0  0  0  0  0  0  0  0
  1  2  2  0  0  0  0
  2  3  1  0  0  0  0
  2  4  1  0  0  0  0
  4  5  2  0  0  0  0
  5  6  1  0  0  0  0
  6  7  2  0  0  0  0
  7  8  1  0  0  0  0
  8  9  1  0  0  0  0
  9 10  2  0  0  0  0
 10 11  1  0  0  0  0
 11  7  1  0  0  0  0
 11 12  2  0  0  0  0
 12  4  1  0  0  0  0
  9 13  1  0  0  0  0
 13 14  2  0  0  0  0
 14 15  1  0  0  0  0
 15 16  2  0  0  0  0
 16 17  1  0  0  0  0
 17 18  2  0  0  0  0
 18 13  1  0  0  0  0
 17 19  1  0  0  0  0
 19 20  1  0  0  0  0
 20 21  2  0  0  0  0
 21 22  1  0  0  0  0
 22 23  1  0  0  0  0
 23 19  2  0  0  0  0
 23 24  1  0  0  0  0
 24 25  1  0  0  0  0
 25 26  1  0  0  0  0
 26 27  1  0  0  0  0
 27 28  1  0  0  0  0
 28 24  1  0  0  0  0
M  END
> <ID>
L10

> <FEP+ dG (kcal/mol)>
-10.21

> <Experimental dG (kcal/mol)>
-9.6

> <System Name>
JAK3

> <Similarity to L01 Reference (FCFP_4)>
0.216867

> <SMILES>
O=C(O)c1ccc2[nH]c(cc2c1)c3nccc(n3)c4cn[nH]c4C5CCCC5

> <Net Charge of Ligand in FEP/MELD>
-1

$$$$

  Mt7.00  01062308342D

 26 30  0  0  0  0  0  0  0  0999 V2000
    7.8133    0.0000    0.0000 O   0  0  0  0  0  0  0  0  0  0  0  0
    7.4066    0.9135    0.0000 C   0  0  0  0  0  0  0  0  0  0  0  0
    7.9944    1.7226    0.0000 C   0  0  0  0  0  0  0  0  0  0  0  0
    7.5877    2.6361    0.0000 C   0  0  0  0  0  0  0  0  0  0  0  0
    6.5931    2.7406    0.0000 C   0  0  0  0  0  0  0  0  0  0  0  0
    6.0054    3.5497    0.0000 N   0  0  0  0  0  0  0  0  0  0  0  0
    5.0543    3.2406    0.0000 C   0  0  0  0  0  0  0  0  0  0  0  0
    5.0543    2.2406    0.0000 C   0  0  0  0  0  0  0  0  0  0  0  0
    6.0054    1.9316    0.0000 C   0  0  0  0  0  0  0  0  0  0  0  0
    6.4121    1.0181    0.0000 C   0  0  0  0  0  0  0  0  0  0  0  0
    4.2453    3.8284    0.0000 C   0  0  0  0  0  0  0  0  0  0  0  0
    4.3498    4.8229    0.0000 N   0  0  0  0  0  0  0  0  0  0  0  0
    3.5408    5.4107    0.0000 C   0  0  0  0  0  0  0  0  0  0  0  0
    2.6272    5.0040    0.0000 C   0  0  0  0  0  0  0  0  0  0  0  0
    2.5227    4.0095    0.0000 C   0  0  0  0  0  0  0  0  0  0  0  0
    3.3317    3.4217    0.0000 N   0  0  0  0  0  0  0  0  0  0  0  0
    1.6092    3.6027    0.0000 C   0  0  0  0  0  0  0  0  0  0  0  0
    0.7431    4.1027    0.0000 C   0  0  0  0  0  0  0  0  0  0  0  0
    0.0000    3.4336    0.0000 N   0  0  0  0  0  0  0  0  0  0  0  0
    0.4067    2.5201    0.0000 N   0  0  0  0  0  0  0  0  0  0  0  0
    1.4013    2.6246    0.0000 C   0  0  0  0  0  0  0  0  0  0  0  0
    2.0704    1.8814    0.0000 C   0  0  0  0  0  0  0  0  0  0  0  0
    1.8625    0.9033    0.0000 C   0  0  0  0  0  0  0  0  0  0  0  0
    2.7285    0.4033    0.0000 C   0  0  0  0  0  0  0  0  0  0  0  0
    3.4716    1.0724    0.0000 C   0  0  0  0  0  0  0  0  0  0  0  0
    3.0649    1.9860    0.0000 C   0  0  0  0  0  0  0  0  0  0  0  0
  1  2  1  0  0  0  0
  2  3  2  0  0  0  0
  3  4  1  0  0  0  0
  4  5  2  0  0  0  0
  5  6  1  0  0  0  0
  6  7  1  0  0  0  0
  7  8  2  0  0  0  0
  8  9  1  0  0  0  0
  9  5  1  0  0  0  0
  9 10  2  0  0  0  0
 10  2  1  0  0  0  0
  7 11  1  0  0  0  0
 11 12  2  0  0  0  0
 12 13  1  0  0  0  0
 13 14  2  0  0  0  0
 14 15  1  0  0  0  0
 15 16  2  0  0  0  0
 16 11  1  0  0  0  0
 15 17  1  0  0  0  0
 17 18  1  0  0  0  0
 18 19  2  0  0  0  0
 19 20  1  0  0  0  0
 20 21  1  0  0  0  0
 21 17  2  0  0  0  0
 21 22  1  0  0  0  0
 22 23  1  0  0  0  0
 23 24  1  0  0  0  0
 24 25  1  0  0  0  0
 25 26  1  0  0  0  0
 26 22  1  0  0  0  0
M  END
> <ID>
L13

> <FEP+ dG (kcal/mol)>
-10.5

> <Experimental dG (kcal/mol)>
-8.8

> <System Name>
JAK3

> <Similarity to L01 Reference (FCFP_4)>
0.197531

> <SMILES>
Oc1ccc2[nH]c(cc2c1)c3nccc(n3)c4cn[nH]c4C5CCCC5

> <Net Charge of Ligand in FEP/MELD>
0

$$$$

  Mt7.00  01062308342D

 28 32  0  0  0  0  0  0  0  0999 V2000
    5.7709    2.4487    0.0000 C   0  0  0  0  0  0  0  0  0  0  0  0
    6.2709    3.3147    0.0000 C   0  0  0  0  0  0  0  0  0  0  0  0
    5.7709    4.1808    0.0000 C   0  0  0  0  0  0  0  0  0  0  0  0
    6.2709    5.0468    0.0000 C   0  0  0  0  0  0  0  0  0  0  0  0
    5.7709    5.9128    0.0000 C   0  0  0  0  0  0  0  0  0  0  0  0
    4.7709    5.9128    0.0000 N   0  0  0  0  0  0  0  0  0  0  0  0
    4.2709    5.0468    0.0000 C   0  0  0  0  0  0  0  0  0  0  0  0
    4.7709    4.1808    0.0000 N   0  0  0  0  0  0  0  0  0  0  0  0
    3.2709    5.0468    0.0000 C   0  0  0  0  0  0  0  0  0  0  0  0
    2.6831    5.8558    0.0000 C   0  0  0  0  0  0  0  0  0  0  0  0
    1.7321    5.5468    0.0000 C   0  0  0  0  0  0  0  0  0  0  0  0
    0.8660    6.0468    0.0000 C   0  0  0  0  0  0  0  0  0  0  0  0
    0.0000    5.5468    0.0000 C   0  0  0  0  0  0  0  0  0  0  0  0
    0.0000    4.5468    0.0000 C   0  0  0  0  0  0  0  0  0  0  0  0
    0.8660    4.0468    0.0000 C   0  0  0  0  0  0  0  0  0  0  0  0
    1.7321    4.5468    0.0000 C   0  0  0  0  0  0  0  0  0  0  0  0
    2.6831    4.2378    0.0000 N   0  0  0  0  0  0  0  0  0  0  0  0
    6.2709    1.5827    0.0000 C   0  0  0  0  0  0  0  0  0  0  0  0
    5.8642    0.6691    0.0000 C   0  0  0  0  0  0  0  0  0  0  0  0
    6.6073    0.0000    0.0000 N   0  0  0  0  0  0  0  0  0  0  0  0
    7.4733    0.5000    0.0000 N   0  0  0  0  0  0  0  0  0  0  0  0
    7.2654    1.4781    0.0000 C   0  0  0  0  0  0  0  0  0  0  0  0
    7.9345    2.2213    0.0000 C   0  0  0  0  0  0  0  0  0  0  0  0
    8.9127    2.0134    0.0000 C   0  0  0  0  0  0  0  0  0  0  0  0
    9.5818    2.7565    0.0000 C   0  0  0  0  0  0  0  0  0  0  0  0
    9.2728    3.7076    0.0000 C   0  0  0  0  0  0  0  0  0  0  0  0
    8.2947    3.9155    0.0000 C   0  0  0  0  0  0  0  0  0  0  0  0
    7.6255    3.1723    0.0000 C   0  0  0  0  0  0  0  0  0  0  0  0
  1  2  2  0  0  0  0
  2  3  1  0  0  0  0
  3  4  2  0  0  0  0
  4  5  1  0  0  0  0
  5  6  2  0  0  0  0
  6  7  1  0  0  0  0
  7  8  2  0  0  0  0
  8  3  1  0  0  0  0
  7  9  1  0  0  0  0
  9 10  2  0  0  0  0
 10 11  1  0  0  0  0
 11 12  2  0  0  0  0
 12 13  1  0  0  0  0
 13 14  2  0  0  0  0
 14 15  1  0  0  0  0
 15 16  2  0  0  0  0
 16 11  1  0  0  0  0
 16 17  1  0  0  0  0
 17  9  1  0  0  0  0
  1 18  1  0  0  0  0
 18 19  1  0  0  0  0
 19 20  2  0  0  0  0
 20 21  1  0  0  0  0
 21 22  1  0  0  0  0
 22 18  2  0  0  0  0
 22 23  1  0  0  0  0
 23 24  1  0  0  0  0
 24 25  1  0  0  0  0
 25 26  1  0  0  0  0
 26 27  1  0  0  0  0
 27 28  1  0  0  0  0
 28 23  1  0  0  0  0
M  END
> <ID>
L15

> <FEP+ dG (kcal/mol)>
-9.88

> <Experimental dG (kcal/mol)>
-8.6

> <System Name>
JAK3

> <Similarity to L01 Reference (FCFP_4)>
0.246753

> <SMILES>
C(=C/c1ccnc(n1)c2cc3ccccc3[nH]2)/c4cn[nH]c4C5CCCCC5

> <Net Charge of Ligand in FEP/MELD>
0

$$$$

  Mt7.00  01062308342D

 24 27  0  0  0  0  0  0  0  0999 V2000
    7.8092    0.0000    0.0000 N   0  0  0  0  0  0  0  0  0  0  0  0
    7.4025    0.9135    0.0000 C   0  0  0  0  0  0  0  0  0  0  0  0
    6.9957    1.8271    0.0000 C   0  0  0  0  0  0  0  0  0  0  0  0
    7.5835    2.6361    0.0000 C   0  0  0  0  0  0  0  0  0  0  0  0
    7.1768    3.5497    0.0000 C   0  0  0  0  0  0  0  0  0  0  0  0
    6.1823    3.6542    0.0000 C   0  0  0  0  0  0  0  0  0  0  0  0
    5.5945    4.4632    0.0000 C   0  0  0  0  0  0  0  0  0  0  0  0
    4.6434    4.1542    0.0000 C   0  0  0  0  0  0  0  0  0  0  0  0
    4.6434    3.1542    0.0000 N   0  0  0  0  0  0  0  0  0  0  0  0
    5.5945    2.8452    0.0000 C   0  0  0  0  0  0  0  0  0  0  0  0
    6.0012    1.9316    0.0000 C   0  0  0  0  0  0  0  0  0  0  0  0
    3.8344    4.7420    0.0000 C   0  0  0  0  0  0  0  0  0  0  0  0
    3.8344    5.7420    0.0000 N   0  0  0  0  0  0  0  0  0  0  0  0
    2.8833    6.0510    0.0000 N   0  0  0  0  0  0  0  0  0  0  0  0
    2.2956    5.2420    0.0000 C   0  0  0  0  0  0  0  0  0  0  0  0
    2.8833    4.4330    0.0000 C   0  0  0  0  0  0  0  0  0  0  0  0
    2.5743    3.4819    0.0000 C   0  0  0  0  0  0  0  0  0  0  0  0
    1.5962    3.2740    0.0000 C   0  0  0  0  0  0  0  0  0  0  0  0
    1.2872    2.3229    0.0000 C   0  0  0  0  0  0  0  0  0  0  0  0
    0.3090    2.1150    0.0000 C   0  0  0  0  0  0  0  0  0  0  0  0
    0.0000    1.1640    0.0000 C   0  0  0  0  0  0  0  0  0  0  0  0
    0.6691    0.4208    0.0000 C   0  0  0  0  0  0  0  0  0  0  0  0
    1.6473    0.6287    0.0000 N   0  0  0  0  0  0  0  0  0  0  0  0
    1.9563    1.5798    0.0000 C   0  0  0  0  0  0  0  0  0  0  0  0
  1  2  3  0  0  0  0
  2  3  1  0  0  0  0
  3  4  2  0  0  0  0
  4  5  1  0  0  0  0
  5  6  2  0  0  0  0
  6  7  1  0  0  0  0
  7  8  2  0  0  0  0
  8  9  1  0  0  0  0
  9 10  1  0  0  0  0
 10  6  1  0  0  0  0
 10 11  2  0  0  0  0
 11  3  1  0  0  0  0
  8 12  1  0  0  0  0
 12 13  2  0  0  0  0
 13 14  1  0  0  0  0
 14 15  1  0  0  0  0
 15 16  2  0  0  0  0
 16 12  1  0  0  0  0
 16 17  1  0  0  0  0
 17 18  2  0  0  0  0
 18 19  1  0  0  0  0
 19 20  2  0  0  0  0
 20 21  1  0  0  0  0
 21 22  2  0  0  0  0
 22 23  1  0  0  0  0
 23 24  2  0  0  0  0
 24 19  1  0  0  0  0
M  END
> <ID>
L16

> <FEP+ dG (kcal/mol)>
-9.07

> <Experimental dG (kcal/mol)>
-8.5

> <System Name>
JAK3

> <Similarity to L01 Reference (FCFP_4)>
0.273973

> <SMILES>
N#Cc1ccc2cc([nH]c2c1)c3n[nH]cc3/C=C/c4cccnc4

> <Net Charge of Ligand in FEP/MELD>
0

$$$$

  Mt7.00  01062308342D

 37 40  0  0  0  0  0  0  0  0999 V2000
   13.9659    4.9954    0.0000 O   0  0  0  0  0  0  0  0  0  0  0  0
   13.0523    5.4021    0.0000 C   0  0  0  0  0  0  0  0  0  0  0  0
   12.9478    6.3967    0.0000 O   0  5  0  0  0  0  0  0  0  0  0  0
   12.2433    4.8144    0.0000 C   0  0  0  0  0  0  0  0  0  0  0  0
   12.3479    3.8198    0.0000 O   0  0  0  0  0  0  0  0  0  0  0  0
   11.5388    3.2321    0.0000 C   0  0  0  0  0  0  0  0  0  0  0  0
   10.5878    3.5411    0.0000 C   0  0  0  0  0  0  0  0  0  0  0  0
   10.2788    4.4921    0.0000 Cl  0  0  0  0  0  0  0  0  0  0  0  0
   10.0000    2.7321    0.0000 C   0  0  0  0  0  0  0  0  0  0  0  0
   10.5878    1.9230    0.0000 S   0  0  0  0  0  0  0  0  0  0  0  0
   11.5388    2.2321    0.0000 C   0  0  0  0  0  0  0  0  0  0  0  0
   12.3479    1.6443    0.0000 C   0  0  0  0  0  0  0  0  0  0  0  0
   13.2614    2.0510    0.0000 O   0  0  0  0  0  0  0  0  0  0  0  0
   12.2433    0.6497    0.0000 O   0  5  0  0  0  0  0  0  0  0  0  0
    9.0000    2.7321    0.0000 C   0  0  0  0  0  0  0  0  0  0  0  0
    8.5000    3.5981    0.0000 C   0  0  0  0  0  0  0  0  0  0  0  0
    7.5000    3.5981    0.0000 C   0  0  0  0  0  0  0  0  0  0  0  0
    7.0000    2.7321    0.0000 C   0  0  0  0  0  0  0  0  0  0  0  0
    7.5000    1.8660    0.0000 C   0  0  0  0  0  0  0  0  0  0  0  0
    8.5000    1.8660    0.0000 C   0  0  0  0  0  0  0  0  0  0  0  0
    7.0000    1.0000    0.0000 N   0  0  0  0  0  0  0  0  0  0  0  0
    6.0000    1.0000    0.0000 C   0  0  0  0  0  0  0  0  0  0  0  0
    5.5000    1.8660    0.0000 C   0  0  0  0  0  0  0  0  0  0  0  0
    4.5000    1.8660    0.0000 C   0  0  0  0  0  0  0  0  0  0  0  0
    4.0000    1.0000    0.0000 N   0  0  0  0  0  0  0  0  0  0  0  0
    4.5000    0.1340    0.0000 C   0  0  0  0  0  0  0  0  0  0  0  0
    5.5000    0.1340    0.0000 C   0  0  0  0  0  0  0  0  0  0  0  0
    3.0000    1.0000    0.0000 S   0  0  0  0  0  0  0  0  0  0  0  0
    3.0000    0.0000    0.0000 O   0  0  0  0  0  0  0  0  0  0  0  0
    3.0000    2.0000    0.0000 O   0  0  0  0  0  0  0  0  0  0  0  0
    2.0000    1.0000    0.0000 C   0  0  0  0  0  0  0  0  0  0  0  0
    1.5000    1.8660    0.0000 C   0  0  0  0  0  0  0  0  0  0  0  0
    2.0000    2.7321    0.0000 C   0  0  0  0  0  0  0  0  0  0  0  0
    1.5000    3.5981    0.0000 C   0  0  0  0  0  0  0  0  0  0  0  0
    0.5000    3.5981    0.0000 C   0  0  0  0  0  0  0  0  0  0  0  0
    0.0000    2.7321    0.0000 C   0  0  0  0  0  0  0  0  0  0  0  0
    0.5000    1.8660    0.0000 C   0  0  0  0  0  0  0  0  0  0  0  0
  1  2  2  0  0  0  0
  2  3  1  0  0  0  0
  2  4  1  0  0  0  0
  4  5  1  0  0  0  0
  5  6  1  0  0  0  0
  6  7  1  0  0  0  0
  7  8  1  0  0  0  0
  7  9  2  0  0  0  0
  9 10  1  0  0  0  0
 10 11  1  0  0  0  0
 11  6  2  0  0  0  0
 11 12  1  0  0  0  0
 12 13  2  0  0  0  0
 12 14  1  0  0  0  0
  9 15  1  0  0  0  0
 15 16  2  0  0  0  0
 16 17  1  0  0  0  0
 17 18  2  0  0  0  0
 18 19  1  0  0  0  0
 19 20  2  0  0  0  0
 20 15  1  0  0  0  0
 19 21  1  0  0  0  0
 21 22  1  0  0  0  0
 22 23  1  0  0  0  0
 23 24  1  0  0  0  0
 24 25  1  0  0  0  0
 25 26  1  0  0  0  0
 26 27  1  0  0  0  0
 27 22  1  0  0  0  0
 25 28  1  0  0  0  0
 28 29  2  0  0  0  0
 28 30  2  0  0  0  0
 28 31  1  0  0  0  0
 31 32  1  0  0  0  0
 32 33  2  0  0  0  0
 33 34  1  0  0  0  0
 34 35  2  0  0  0  0
 35 36  1  0  0  0  0
 36 37  2  0  0  0  0
 37 32  1  0  0  0  0
M  CHG  2   3  -1  14  -1
M  END
> <ID>
L01

> <FEP+ dG (kcal/mol)>
-10.99

> <Experimental dG (kcal/mol)>
-12.47

> <System Name>
PTP1B

> <Similarity to L01 Reference (FCFP_4)>
1

> <SMILES>
O=C([O-])COc1c(Cl)c(sc1C(=O)[O-])c2cccc(c2)NC3CCN(CC3)S(=O)(=O)Cc4ccccc4

> <Net Charge of Ligand in FEP/MELD>
-2

$$$$

  Mt7.00  01062308342D

 31 33  0  0  0  0  0  0  0  0999 V2000
    6.6502    2.5391    0.0000 C   0  0  0  0  0  0  0  0  0  0  0  0
    5.9431    1.8320    0.0000 C   0  0  0  0  0  0  0  0  0  0  0  0
    6.6502    1.1248    0.0000 C   0  0  0  0  0  0  0  0  0  0  0  0
    5.4431    2.6980    0.0000 C   0  0  0  0  0  0  0  0  0  0  0  0
    4.4431    2.6980    0.0000 C   0  0  0  0  0  0  0  0  0  0  0  0
    3.9431    1.8320    0.0000 C   0  0  0  0  0  0  0  0  0  0  0  0
    4.4431    0.9659    0.0000 C   0  0  0  0  0  0  0  0  0  0  0  0
    3.4771    0.7071    0.0000 C   0  0  0  0  0  0  0  0  0  0  0  0
    4.7019    0.0000    0.0000 C   0  0  0  0  0  0  0  0  0  0  0  0
    5.4431    0.9659    0.0000 C   0  0  0  0  0  0  0  0  0  0  0  0
    3.9431    3.5640    0.0000 N   0  0  0  0  0  0  0  0  0  0  0  0
    4.4431    4.4300    0.0000 C   0  0  0  0  0  0  0  0  0  0  0  0
    5.4431    4.4300    0.0000 C   0  0  0  0  0  0  0  0  0  0  0  0
    5.9431    5.2961    0.0000 C   0  0  0  0  0  0  0  0  0  0  0  0
    5.4431    6.1621    0.0000 C   0  0  0  0  0  0  0  0  0  0  0  0
    4.4431    6.1621    0.0000 C   0  0  0  0  0  0  0  0  0  0  0  0
    3.9431    5.2961    0.0000 C   0  0  0  0  0  0  0  0  0  0  0  0
    3.9431    7.0281    0.0000 C   0  0  0  0  0  0  0  0  0  0  0  0
    4.3498    7.9416    0.0000 S   0  0  0  0  0  0  0  0  0  0  0  0
    3.6067    8.6108    0.0000 C   0  0  0  0  0  0  0  0  0  0  0  0
    3.7112    9.6053    0.0000 C   0  0  0  0  0  0  0  0  0  0  0  0
    2.9022   10.1931    0.0000 O   0  0  0  0  0  0  0  0  0  0  0  0
    4.6247   10.0120    0.0000 O   0  5  0  0  0  0  0  0  0  0  0  0
    2.7406    8.1108    0.0000 C   0  0  0  0  0  0  0  0  0  0  0  0
    1.8271    8.5175    0.0000 O   0  0  0  0  0  0  0  0  0  0  0  0
    1.7226    9.5120    0.0000 C   0  0  0  0  0  0  0  0  0  0  0  0
    0.8090    9.9188    0.0000 C   0  0  0  0  0  0  0  0  0  0  0  0
    0.0000    9.3310    0.0000 O   0  0  0  0  0  0  0  0  0  0  0  0
    0.7045   10.9133    0.0000 O   0  5  0  0  0  0  0  0  0  0  0  0
    2.9485    7.1326    0.0000 C   0  0  0  0  0  0  0  0  0  0  0  0
    2.2794    6.3895    0.0000 Br  0  0  0  0  0  0  0  0  0  0  0  0
  1  2  1  0  0  0  0
  2  3  1  0  0  0  0
  2  4  1  0  0  0  0
  4  5  1  0  0  0  0
  5  6  1  0  0  0  0
  6  7  1  0  0  0  0
  7  8  1  0  0  0  0
  7  9  1  0  0  0  0
  7 10  1  0  0  0  0
 10  2  1  0  0  0  0
  5 11  1  0  0  0  0
 11 12  1  0  0  0  0
 12 13  2  0  0  0  0
 13 14  1  0  0  0  0
 14 15  2  0  0  0  0
 15 16  1  0  0  0  0
 16 17  2  0  0  0  0
 17 12  1  0  0  0  0
 16 18  1  0  0  0  0
 18 19  1  0  0  0  0
 19 20  1  0  0  0  0
 20 21  1  0  0  0  0
 21 22  2  0  0  0  0
 21 23  1  0  0  0  0
 20 24  2  0  0  0  0
 24 25  1  0  0  0  0
 25 26  1  0  0  0  0
 26 27  1  0  0  0  0
 27 28  2  0  0  0  0
 27 29  1  0  0  0  0
 24 30  1  0  0  0  0
 30 18  2  0  0  0  0
 30 31  1  0  0  0  0
M  CHG  2  23  -1  29  -1
M  END
> <ID>
L02

> <FEP+ dG (kcal/mol)>
-10.97

> <Experimental dG (kcal/mol)>
-10.13

> <System Name>
PTP1B

> <Similarity to L01 Reference (FCFP_4)>
0.7

> <SMILES>
CC1(C)CC(CC(C)(C)C1)Nc2cccc(c2)c3sc(C(=O)[O-])c(OCC(=O)[O-])c3Br

> <Net Charge of Ligand in FEP/MELD>
-2

$$$$

  Mt7.00  01062308342D

 36 39  0  0  0  0  0  0  0  0999 V2000
   13.9659    4.9954    0.0000 O   0  0  0  0  0  0  0  0  0  0  0  0
   13.0523    5.4021    0.0000 C   0  0  0  0  0  0  0  0  0  0  0  0
   12.9478    6.3967    0.0000 O   0  5  0  0  0  0  0  0  0  0  0  0
   12.2433    4.8144    0.0000 C   0  0  0  0  0  0  0  0  0  0  0  0
   12.3479    3.8198    0.0000 O   0  0  0  0  0  0  0  0  0  0  0  0
   11.5388    3.2321    0.0000 C   0  0  0  0  0  0  0  0  0  0  0  0
   10.5878    3.5411    0.0000 C   0  0  0  0  0  0  0  0  0  0  0  0
   10.2788    4.4921    0.0000 Br  0  0  0  0  0  0  0  0  0  0  0  0
   10.0000    2.7321    0.0000 C   0  0  0  0  0  0  0  0  0  0  0  0
   10.5878    1.9230    0.0000 S   0  0  0  0  0  0  0  0  0  0  0  0
   11.5388    2.2321    0.0000 C   0  0  0  0  0  0  0  0  0  0  0  0
   12.3479    1.6443    0.0000 C   0  0  0  0  0  0  0  0  0  0  0  0
   13.2614    2.0510    0.0000 O   0  0  0  0  0  0  0  0  0  0  0  0
   12.2433    0.6497    0.0000 O   0  5  0  0  0  0  0  0  0  0  0  0
    9.0000    2.7321    0.0000 C   0  0  0  0  0  0  0  0  0  0  0  0
    8.5000    3.5981    0.0000 C   0  0  0  0  0  0  0  0  0  0  0  0
    7.5000    3.5981    0.0000 C   0  0  0  0  0  0  0  0  0  0  0  0
    7.0000    2.7321    0.0000 C   0  0  0  0  0  0  0  0  0  0  0  0
    7.5000    1.8660    0.0000 C   0  0  0  0  0  0  0  0  0  0  0  0
    8.5000    1.8660    0.0000 C   0  0  0  0  0  0  0  0  0  0  0  0
    7.0000    1.0000    0.0000 N   0  0  0  0  0  0  0  0  0  0  0  0
    6.0000    1.0000    0.0000 C   0  0  0  0  0  0  0  0  0  0  0  0
    5.5000    1.8660    0.0000 C   0  0  0  0  0  0  0  0  0  0  0  0
    4.5000    1.8660    0.0000 C   0  0  0  0  0  0  0  0  0  0  0  0
    4.0000    1.0000    0.0000 N   0  0  0  0  0  0  0  0  0  0  0  0
    4.5000    0.1340    0.0000 C   0  0  0  0  0  0  0  0  0  0  0  0
    5.5000    0.1340    0.0000 C   0  0  0  0  0  0  0  0  0  0  0  0
    3.0000    1.0000    0.0000 S   0  0  0  0  0  0  0  0  0  0  0  0
    3.0000    0.0000    0.0000 O   0  0  0  0  0  0  0  0  0  0  0  0
    3.0000    2.0000    0.0000 O   0  0  0  0  0  0  0  0  0  0  0  0
    2.0000    1.0000    0.0000 C   0  0  0  0  0  0  0  0  0  0  0  0
    1.5000    1.8660    0.0000 C   0  0  0  0  0  0  0  0  0  0  0  0
    0.5000    1.8660    0.0000 C   0  0  0  0  0  0  0  0  0  0  0  0
    0.0000    1.0000    0.0000 C   0  0  0  0  0  0  0  0  0  0  0  0
    0.5000    0.1340    0.0000 C   0  0  0  0  0  0  0  0  0  0  0  0
    1.5000    0.1340    0.0000 C   0  0  0  0  0  0  0  0  0  0  0  0
  1  2  2  0  0  0  0
  2  3  1  0  0  0  0
  2  4  1  0  0  0  0
  4  5  1  0  0  0  0
  5  6  1  0  0  0  0
  6  7  1  0  0  0  0
  7  8  1  0  0  0  0
  7  9  2  0  0  0  0
  9 10  1  0  0  0  0
 10 11  1  0  0  0  0
 11  6  2  0  0  0  0
 11 12  1  0  0  0  0
 12 13  2  0  0  0  0
 12 14  1  0  0  0  0
  9 15  1  0  0  0  0
 15 16  2  0  0  0  0
 16 17  1  0  0  0  0
 17 18  2  0  0  0  0
 18 19  1  0  0  0  0
 19 20  2  0  0  0  0
 20 15  1  0  0  0  0
 19 21  1  0  0  0  0
 21 22  1  0  0  0  0
 22 23  1  0  0  0  0
 23 24  1  0  0  0  0
 24 25  1  0  0  0  0
 25 26  1  0  0  0  0
 26 27  1  0  0  0  0
 27 22  1  0  0  0  0
 25 28  1  0  0  0  0
 28 29  2  0  0  0  0
 28 30  2  0  0  0  0
 28 31  1  0  0  0  0
 31 32  2  0  0  0  0
 32 33  1  0  0  0  0
 33 34  2  0  0  0  0
 34 35  1  0  0  0  0
 35 36  2  0  0  0  0
 36 31  1  0  0  0  0
M  CHG  2   3  -1  14  -1
M  END
> <ID>
L03

> <FEP+ dG (kcal/mol)>
-10.83

> <Experimental dG (kcal/mol)>
-9.87

> <System Name>
PTP1B

> <Similarity to L01 Reference (FCFP_4)>
0.830508

> <SMILES>
O=C([O-])COc1c(Br)c(sc1C(=O)[O-])c2cccc(c2)NC3CCN(CC3)S(=O)(=O)c4ccccc4

> <Net Charge of Ligand in FEP/MELD>
-2

$$$$

  Mt7.00  01062308342D

 37 40  0  0  0  0  0  0  0  0999 V2000
   13.9659    4.9954    0.0000 O   0  0  0  0  0  0  0  0  0  0  0  0
   13.0523    5.4021    0.0000 C   0  0  0  0  0  0  0  0  0  0  0  0
   12.9478    6.3967    0.0000 O   0  5  0  0  0  0  0  0  0  0  0  0
   12.2433    4.8144    0.0000 C   0  0  0  0  0  0  0  0  0  0  0  0
   12.3479    3.8198    0.0000 O   0  0  0  0  0  0  0  0  0  0  0  0
   11.5388    3.2321    0.0000 C   0  0  0  0  0  0  0  0  0  0  0  0
   10.5878    3.5411    0.0000 C   0  0  0  0  0  0  0  0  0  0  0  0
   10.2788    4.4921    0.0000 Br  0  0  0  0  0  0  0  0  0  0  0  0
   10.0000    2.7321    0.0000 C   0  0  0  0  0  0  0  0  0  0  0  0
   10.5878    1.9230    0.0000 S   0  0  0  0  0  0  0  0  0  0  0  0
   11.5388    2.2321    0.0000 C   0  0  0  0  0  0  0  0  0  0  0  0
   12.3479    1.6443    0.0000 C   0  0  0  0  0  0  0  0  0  0  0  0
   13.2614    2.0510    0.0000 O   0  0  0  0  0  0  0  0  0  0  0  0
   12.2433    0.6497    0.0000 O   0  5  0  0  0  0  0  0  0  0  0  0
    9.0000    2.7321    0.0000 C   0  0  0  0  0  0  0  0  0  0  0  0
    8.5000    3.5981    0.0000 C   0  0  0  0  0  0  0  0  0  0  0  0
    7.5000    3.5981    0.0000 C   0  0  0  0  0  0  0  0  0  0  0  0
    7.0000    2.7321    0.0000 C   0  0  0  0  0  0  0  0  0  0  0  0
    7.5000    1.8660    0.0000 C   0  0  0  0  0  0  0  0  0  0  0  0
    8.5000    1.8660    0.0000 C   0  0  0  0  0  0  0  0  0  0  0  0
    7.0000    1.0000    0.0000 N   0  0  0  0  0  0  0  0  0  0  0  0
    6.0000    1.0000    0.0000 C   0  0  0  0  0  0  0  0  0  0  0  0
    5.5000    1.8660    0.0000 C   0  0  0  0  0  0  0  0  0  0  0  0
    4.5000    1.8660    0.0000 C   0  0  0  0  0  0  0  0  0  0  0  0
    4.0000    1.0000    0.0000 N   0  0  0  0  0  0  0  0  0  0  0  0
    4.5000    0.1340    0.0000 C   0  0  0  0  0  0  0  0  0  0  0  0
    5.5000    0.1340    0.0000 C   0  0  0  0  0  0  0  0  0  0  0  0
    3.0000    1.0000    0.0000 S   0  0  0  0  0  0  0  0  0  0  0  0
    3.0000    0.0000    0.0000 O   0  0  0  0  0  0  0  0  0  0  0  0
    3.0000    2.0000    0.0000 O   0  0  0  0  0  0  0  0  0  0  0  0
    2.0000    1.0000    0.0000 C   0  0  0  0  0  0  0  0  0  0  0  0
    1.5000    1.8660    0.0000 C   0  0  0  0  0  0  0  0  0  0  0  0
    2.0000    2.7321    0.0000 C   0  0  0  0  0  0  0  0  0  0  0  0
    1.5000    3.5981    0.0000 C   0  0  0  0  0  0  0  0  0  0  0  0
    0.5000    3.5981    0.0000 C   0  0  0  0  0  0  0  0  0  0  0  0
    0.0000    2.7321    0.0000 C   0  0  0  0  0  0  0  0  0  0  0  0
    0.5000    1.8660    0.0000 C   0  0  0  0  0  0  0  0  0  0  0  0
  1  2  2  0  0  0  0
  2  3  1  0  0  0  0
  2  4  1  0  0  0  0
  4  5  1  0  0  0  0
  5  6  1  0  0  0  0
  6  7  1  0  0  0  0
  7  8  1  0  0  0  0
  7  9  2  0  0  0  0
  9 10  1  0  0  0  0
 10 11  1  0  0  0  0
 11  6  2  0  0  0  0
 11 12  1  0  0  0  0
 12 13  2  0  0  0  0
 12 14  1  0  0  0  0
  9 15  1  0  0  0  0
 15 16  2  0  0  0  0
 16 17  1  0  0  0  0
 17 18  2  0  0  0  0
 18 19  1  0  0  0  0
 19 20  2  0  0  0  0
 20 15  1  0  0  0  0
 19 21  1  0  0  0  0
 21 22  1  0  0  0  0
 22 23  1  0  0  0  0
 23 24  1  0  0  0  0
 24 25  1  0  0  0  0
 25 26  1  0  0  0  0
 26 27  1  0  0  0  0
 27 22  1  0  0  0  0
 25 28  1  0  0  0  0
 28 29  2  0  0  0  0
 28 30  2  0  0  0  0
 28 31  1  0  0  0  0
 31 32  1  0  0  0  0
 32 33  2  0  0  0  0
 33 34  1  0  0  0  0
 34 35  2  0  0  0  0
 35 36  1  0  0  0  0
 36 37  2  0  0  0  0
 37 32  1  0  0  0  0
M  CHG  2   3  -1  14  -1
M  END
> <ID>
L04

> <FEP+ dG (kcal/mol)>
-10.62

> <Experimental dG (kcal/mol)>
-11.42

> <System Name>
PTP1B

> <Similarity to L01 Reference (FCFP_4)>
1

> <SMILES>
O=C([O-])COc1c(Br)c(sc1C(=O)[O-])c2cccc(c2)NC3CCN(CC3)S(=O)(=O)Cc4ccccc4

> <Net Charge of Ligand in FEP/MELD>
-2

$$$$

  Mt7.00  01062308342D

 36 39  0  0  0  0  0  0  0  0999 V2000
   13.9659    4.9954    0.0000 O   0  0  0  0  0  0  0  0  0  0  0  0
   13.0523    5.4021    0.0000 C   0  0  0  0  0  0  0  0  0  0  0  0
   12.9478    6.3967    0.0000 O   0  5  0  0  0  0  0  0  0  0  0  0
   12.2433    4.8144    0.0000 C   0  0  0  0  0  0  0  0  0  0  0  0
   12.3479    3.8198    0.0000 O   0  0  0  0  0  0  0  0  0  0  0  0
   11.5388    3.2321    0.0000 C   0  0  0  0  0  0  0  0  0  0  0  0
   10.5878    3.5411    0.0000 C   0  0  0  0  0  0  0  0  0  0  0  0
   10.0000    2.7321    0.0000 C   0  0  0  0  0  0  0  0  0  0  0  0
   10.5878    1.9230    0.0000 S   0  0  0  0  0  0  0  0  0  0  0  0
   11.5388    2.2321    0.0000 C   0  0  0  0  0  0  0  0  0  0  0  0
   12.3479    1.6443    0.0000 C   0  0  0  0  0  0  0  0  0  0  0  0
   13.2614    2.0510    0.0000 O   0  0  0  0  0  0  0  0  0  0  0  0
   12.2433    0.6497    0.0000 O   0  5  0  0  0  0  0  0  0  0  0  0
    9.0000    2.7321    0.0000 C   0  0  0  0  0  0  0  0  0  0  0  0
    8.5000    3.5981    0.0000 C   0  0  0  0  0  0  0  0  0  0  0  0
    7.5000    3.5981    0.0000 C   0  0  0  0  0  0  0  0  0  0  0  0
    7.0000    2.7321    0.0000 C   0  0  0  0  0  0  0  0  0  0  0  0
    7.5000    1.8660    0.0000 C   0  0  0  0  0  0  0  0  0  0  0  0
    8.5000    1.8660    0.0000 C   0  0  0  0  0  0  0  0  0  0  0  0
    7.0000    1.0000    0.0000 N   0  0  0  0  0  0  0  0  0  0  0  0
    6.0000    1.0000    0.0000 C   0  0  0  0  0  0  0  0  0  0  0  0
    5.5000    1.8660    0.0000 C   0  0  0  0  0  0  0  0  0  0  0  0
    4.5000    1.8660    0.0000 C   0  0  0  0  0  0  0  0  0  0  0  0
    4.0000    1.0000    0.0000 N   0  0  0  0  0  0  0  0  0  0  0  0
    4.5000    0.1340    0.0000 C   0  0  0  0  0  0  0  0  0  0  0  0
    5.5000    0.1340    0.0000 C   0  0  0  0  0  0  0  0  0  0  0  0
    3.0000    1.0000    0.0000 S   0  0  0  0  0  0  0  0  0  0  0  0
    3.0000    0.0000    0.0000 O   0  0  0  0  0  0  0  0  0  0  0  0
    3.0000    2.0000    0.0000 O   0  0  0  0  0  0  0  0  0  0  0  0
    2.0000    1.0000    0.0000 C   0  0  0  0  0  0  0  0  0  0  0  0
    1.5000    1.8660    0.0000 C   0  0  0  0  0  0  0  0  0  0  0  0
    2.0000    2.7321    0.0000 C   0  0  0  0  0  0  0  0  0  0  0  0
    1.5000    3.5981    0.0000 C   0  0  0  0  0  0  0  0  0  0  0  0
    0.5000    3.5981    0.0000 C   0  0  0  0  0  0  0  0  0  0  0  0
    0.0000    2.7321    0.0000 C   0  0  0  0  0  0  0  0  0  0  0  0
    0.5000    1.8660    0.0000 C   0  0  0  0  0  0  0  0  0  0  0  0
  1  2  2  0  0  0  0
  2  3  1  0  0  0  0
  2  4  1  0  0  0  0
  4  5  1  0  0  0  0
  5  6  1  0  0  0  0
  6  7  1  0  0  0  0
  7  8  2  0  0  0  0
  8  9  1  0  0  0  0
  9 10  1  0  0  0  0
 10  6  2  0  0  0  0
 10 11  1  0  0  0  0
 11 12  2  0  0  0  0
 11 13  1  0  0  0  0
  8 14  1  0  0  0  0
 14 15  2  0  0  0  0
 15 16  1  0  0  0  0
 16 17  2  0  0  0  0
 17 18  1  0  0  0  0
 18 19  2  0  0  0  0
 19 14  1  0  0  0  0
 18 20  1  0  0  0  0
 20 21  1  0  0  0  0
 21 22  1  0  0  0  0
 22 23  1  0  0  0  0
 23 24  1  0  0  0  0
 24 25  1  0  0  0  0
 25 26  1  0  0  0  0
 26 21  1  0  0  0  0
 24 27  1  0  0  0  0
 27 28  2  0  0  0  0
 27 29  2  0  0  0  0
 27 30  1  0  0  0  0
 30 31  1  0  0  0  0
 31 32  2  0  0  0  0
 32 33  1  0  0  0  0
 33 34  2  0  0  0  0
 34 35  1  0  0  0  0
 35 36  2  0  0  0  0
 36 31  1  0  0  0  0
M  CHG  2   3  -1  13  -1
M  END
> <ID>
L05

> <FEP+ dG (kcal/mol)>
-10.02

> <Experimental dG (kcal/mol)>
-7.75

> <System Name>
PTP1B

> <Similarity to L01 Reference (FCFP_4)>
0.844828

> <SMILES>
O=C([O-])COc1cc(sc1C(=O)[O-])c2cccc(c2)NC3CCN(CC3)S(=O)(=O)Cc4ccccc4

> <Net Charge of Ligand in FEP/MELD>
-2

$$$$

  Mt7.00  01062308342D

 27 29  0  0  0  0  0  0  0  0999 V2000
    9.9659    4.8614    0.0000 O   0  0  0  0  0  0  0  0  0  0  0  0
    9.0523    5.2682    0.0000 C   0  0  0  0  0  0  0  0  0  0  0  0
    8.9478    6.2627    0.0000 O   0  5  0  0  0  0  0  0  0  0  0  0
    8.2433    4.6804    0.0000 C   0  0  0  0  0  0  0  0  0  0  0  0
    8.3479    3.6859    0.0000 O   0  0  0  0  0  0  0  0  0  0  0  0
    7.5388    3.0981    0.0000 C   0  0  0  0  0  0  0  0  0  0  0  0
    6.5878    3.4071    0.0000 C   0  0  0  0  0  0  0  0  0  0  0  0
    6.2788    4.3581    0.0000 Br  0  0  0  0  0  0  0  0  0  0  0  0
    6.0000    2.5981    0.0000 C   0  0  0  0  0  0  0  0  0  0  0  0
    6.5878    1.7891    0.0000 S   0  0  0  0  0  0  0  0  0  0  0  0
    7.5388    2.0981    0.0000 C   0  0  0  0  0  0  0  0  0  0  0  0
    8.3479    1.5103    0.0000 C   0  0  0  0  0  0  0  0  0  0  0  0
    9.2614    1.9170    0.0000 O   0  0  0  0  0  0  0  0  0  0  0  0
    8.2433    0.5158    0.0000 O   0  5  0  0  0  0  0  0  0  0  0  0
    5.0000    2.5981    0.0000 C   0  0  0  0  0  0  0  0  0  0  0  0
    4.5000    3.4641    0.0000 C   0  0  0  0  0  0  0  0  0  0  0  0
    3.5000    3.4641    0.0000 C   0  0  0  0  0  0  0  0  0  0  0  0
    3.0000    2.5981    0.0000 C   0  0  0  0  0  0  0  0  0  0  0  0
    3.5000    1.7321    0.0000 C   0  0  0  0  0  0  0  0  0  0  0  0
    4.5000    1.7321    0.0000 C   0  0  0  0  0  0  0  0  0  0  0  0
    3.0000    0.8660    0.0000 N   0  0  0  0  0  0  0  0  0  0  0  0
    2.0000    0.8660    0.0000 C   0  0  0  0  0  0  0  0  0  0  0  0
    1.5000    1.7321    0.0000 C   0  0  0  0  0  0  0  0  0  0  0  0
    0.5000    1.7321    0.0000 C   0  0  0  0  0  0  0  0  0  0  0  0
    0.0000    0.8660    0.0000 C   0  0  0  0  0  0  0  0  0  0  0  0
    0.5000    0.0000    0.0000 C   0  0  0  0  0  0  0  0  0  0  0  0
    1.5000    0.0000    0.0000 C   0  0  0  0  0  0  0  0  0  0  0  0
  1  2  2  0  0  0  0
  2  3  1  0  0  0  0
  2  4  1  0  0  0  0
  4  5  1  0  0  0  0
  5  6  1  0  0  0  0
  6  7  1  0  0  0  0
  7  8  1  0  0  0  0
  7  9  2  0  0  0  0
  9 10  1  0  0  0  0
 10 11  1  0  0  0  0
 11  6  2  0  0  0  0
 11 12  1  0  0  0  0
 12 13  2  0  0  0  0
 12 14  1  0  0  0  0
  9 15  1  0  0  0  0
 15 16  2  0  0  0  0
 16 17  1  0  0  0  0
 17 18  2  0  0  0  0
 18 19  1  0  0  0  0
 19 20  2  0  0  0  0
 20 15  1  0  0  0  0
 19 21  1  0  0  0  0
 21 22  1  0  0  0  0
 22 23  1  0  0  0  0
 23 24  1  0  0  0  0
 24 25  1  0  0  0  0
 25 26  1  0  0  0  0
 26 27  1  0  0  0  0
 27 22  1  0  0  0  0
M  CHG  2   3  -1  14  -1
M  END
> <ID>
L06

> <FEP+ dG (kcal/mol)>
-9.95

> <Experimental dG (kcal/mol)>
-9.08

> <System Name>
PTP1B

> <Similarity to L01 Reference (FCFP_4)>
0.736842

> <SMILES>
O=C([O-])COc1c(Br)c(sc1C(=O)[O-])c2cccc(c2)NC3CCCCC3

> <Net Charge of Ligand in FEP/MELD>
-2

$$$$

  Mt7.00  01062308342D

 31 33  0  0  0  0  0  0  0  0999 V2000
   12.9840    1.0000    0.0000 C   0  0  0  0  0  0  0  0  0  0  0  0
   11.9840    1.0000    0.0000 S   0  0  0  0  0  0  0  0  0  0  0  0
   11.9840    0.0000    0.0000 O   0  0  0  0  0  0  0  0  0  0  0  0
   11.9840    2.0000    0.0000 O   0  0  0  0  0  0  0  0  0  0  0  0
   10.9840    1.0000    0.0000 N   0  0  0  0  0  0  0  0  0  0  0  0
   10.4840    1.8660    0.0000 C   0  0  0  0  0  0  0  0  0  0  0  0
    9.4840    1.8660    0.0000 C   0  0  0  0  0  0  0  0  0  0  0  0
    8.9840    1.0000    0.0000 C   0  0  0  0  0  0  0  0  0  0  0  0
    9.4840    0.1340    0.0000 C   0  0  0  0  0  0  0  0  0  0  0  0
   10.4840    0.1340    0.0000 C   0  0  0  0  0  0  0  0  0  0  0  0
    7.9840    1.0000    0.0000 N   0  0  0  0  0  0  0  0  0  0  0  0
    7.4840    1.8660    0.0000 C   0  0  0  0  0  0  0  0  0  0  0  0
    7.9840    2.7321    0.0000 C   0  0  0  0  0  0  0  0  0  0  0  0
    7.4840    3.5981    0.0000 C   0  0  0  0  0  0  0  0  0  0  0  0
    6.4840    3.5981    0.0000 C   0  0  0  0  0  0  0  0  0  0  0  0
    5.9840    2.7321    0.0000 C   0  0  0  0  0  0  0  0  0  0  0  0
    6.4840    1.8660    0.0000 C   0  0  0  0  0  0  0  0  0  0  0  0
    4.9840    2.7321    0.0000 C   0  0  0  0  0  0  0  0  0  0  0  0
    4.3962    3.5411    0.0000 S   0  0  0  0  0  0  0  0  0  0  0  0
    3.4451    3.2321    0.0000 C   0  0  0  0  0  0  0  0  0  0  0  0
    2.6361    3.8198    0.0000 C   0  0  0  0  0  0  0  0  0  0  0  0
    1.7226    3.4131    0.0000 O   0  0  0  0  0  0  0  0  0  0  0  0
    2.7406    4.8144    0.0000 O   0  5  0  0  0  0  0  0  0  0  0  0
    3.4451    2.2321    0.0000 C   0  0  0  0  0  0  0  0  0  0  0  0
    2.6361    1.6443    0.0000 O   0  0  0  0  0  0  0  0  0  0  0  0
    1.7226    2.0510    0.0000 C   0  0  0  0  0  0  0  0  0  0  0  0
    0.9135    1.4632    0.0000 C   0  0  0  0  0  0  0  0  0  0  0  0
    1.0181    0.4687    0.0000 O   0  0  0  0  0  0  0  0  0  0  0  0
    0.0000    1.8700    0.0000 O   0  5  0  0  0  0  0  0  0  0  0  0
    4.3962    1.9230    0.0000 C   0  0  0  0  0  0  0  0  0  0  0  0
    4.7052    0.9720    0.0000 Br  0  0  0  0  0  0  0  0  0  0  0  0
  1  2  1  0  0  0  0
  2  3  2  0  0  0  0
  2  4  2  0  0  0  0
  2  5  1  0  0  0  0
  5  6  1  0  0  0  0
  6  7  1  0  0  0  0
  7  8  1  0  0  0  0
  8  9  1  0  0  0  0
  9 10  1  0  0  0  0
 10  5  1  0  0  0  0
  8 11  1  0  0  0  0
 11 12  1  0  0  0  0
 12 13  2  0  0  0  0
 13 14  1  0  0  0  0
 14 15  2  0  0  0  0
 15 16  1  0  0  0  0
 16 17  2  0  0  0  0
 17 12  1  0  0  0  0
 16 18  1  0  0  0  0
 18 19  1  0  0  0  0
 19 20  1  0  0  0  0
 20 21  1  0  0  0  0
 21 22  2  0  0  0  0
 21 23  1  0  0  0  0
 20 24  2  0  0  0  0
 24 25  1  0  0  0  0
 25 26  1  0  0  0  0
 26 27  1  0  0  0  0
 27 28  2  0  0  0  0
 27 29  1  0  0  0  0
 24 30  1  0  0  0  0
 30 18  2  0  0  0  0
 30 31  1  0  0  0  0
M  CHG  2  23  -1  29  -1
M  END
> <ID>
L07

> <FEP+ dG (kcal/mol)>
-9.8

> <Experimental dG (kcal/mol)>
-10.01

> <System Name>
PTP1B

> <Similarity to L01 Reference (FCFP_4)>
0.859649

> <SMILES>
CS(=O)(=O)N1CCC(CC1)Nc2cccc(c2)c3sc(C(=O)[O-])c(OCC(=O)[O-])c3Br

> <Net Charge of Ligand in FEP/MELD>
-2

$$$$

  Mt7.00  01062308342D

 37 40  0  0  0  0  0  0  0  0999 V2000
   10.2788    1.9045    0.0000 C   0  0  0  0  0  0  0  0  0  0  0  0
   10.5878    2.8556    0.0000 C   0  0  0  0  0  0  0  0  0  0  0  0
   11.5388    3.1646    0.0000 C   0  0  0  0  0  0  0  0  0  0  0  0
   12.3479    2.5768    0.0000 O   0  0  0  0  0  0  0  0  0  0  0  0
   12.2433    1.5823    0.0000 C   0  0  0  0  0  0  0  0  0  0  0  0
   13.0523    0.9945    0.0000 C   0  0  0  0  0  0  0  0  0  0  0  0
   13.9659    1.4013    0.0000 O   0  0  0  0  0  0  0  0  0  0  0  0
   12.9478    0.0000    0.0000 O   0  5  0  0  0  0  0  0  0  0  0  0
   11.5388    4.1646    0.0000 C   0  0  0  0  0  0  0  0  0  0  0  0
   10.5878    4.4736    0.0000 S   0  0  0  0  0  0  0  0  0  0  0  0
   10.0000    3.6646    0.0000 C   0  0  0  0  0  0  0  0  0  0  0  0
    9.0000    3.6646    0.0000 C   0  0  0  0  0  0  0  0  0  0  0  0
    8.5000    4.5306    0.0000 C   0  0  0  0  0  0  0  0  0  0  0  0
    7.5000    4.5306    0.0000 C   0  0  0  0  0  0  0  0  0  0  0  0
    7.0000    3.6646    0.0000 C   0  0  0  0  0  0  0  0  0  0  0  0
    7.5000    2.7986    0.0000 C   0  0  0  0  0  0  0  0  0  0  0  0
    8.5000    2.7986    0.0000 C   0  0  0  0  0  0  0  0  0  0  0  0
    7.0000    1.9326    0.0000 N   0  0  0  0  0  0  0  0  0  0  0  0
    6.0000    1.9326    0.0000 C   0  0  0  0  0  0  0  0  0  0  0  0
    5.5000    2.7986    0.0000 C   0  0  0  0  0  0  0  0  0  0  0  0
    4.5000    2.7986    0.0000 C   0  0  0  0  0  0  0  0  0  0  0  0
    4.0000    1.9326    0.0000 N   0  0  0  0  0  0  0  0  0  0  0  0
    4.5000    1.0665    0.0000 C   0  0  0  0  0  0  0  0  0  0  0  0
    5.5000    1.0665    0.0000 C   0  0  0  0  0  0  0  0  0  0  0  0
    3.0000    1.9326    0.0000 S   0  0  0  0  0  0  0  0  0  0  0  0
    3.0000    0.9326    0.0000 O   0  0  0  0  0  0  0  0  0  0  0  0
    3.0000    2.9326    0.0000 O   0  0  0  0  0  0  0  0  0  0  0  0
    2.0000    1.9326    0.0000 C   0  0  0  0  0  0  0  0  0  0  0  0
    1.5000    2.7986    0.0000 C   0  0  0  0  0  0  0  0  0  0  0  0
    2.0000    3.6646    0.0000 C   0  0  0  0  0  0  0  0  0  0  0  0
    1.5000    4.5306    0.0000 C   0  0  0  0  0  0  0  0  0  0  0  0
    0.5000    4.5306    0.0000 C   0  0  0  0  0  0  0  0  0  0  0  0
    0.0000    3.6646    0.0000 C   0  0  0  0  0  0  0  0  0  0  0  0
    0.5000    2.7986    0.0000 C   0  0  0  0  0  0  0  0  0  0  0  0
   12.3479    4.7524    0.0000 C   0  0  0  0  0  0  0  0  0  0  0  0
   12.2433    5.7469    0.0000 O   0  0  0  0  0  0  0  0  0  0  0  0
   13.2614    4.3457    0.0000 O   0  5  0  0  0  0  0  0  0  0  0  0
  1  2  1  0  0  0  0
  2  3  1  0  0  0  0
  3  4  1  0  0  0  0
  4  5  1  0  0  0  0
  5  6  1  0  0  0  0
  6  7  2  0  0  0  0
  6  8  1  0  0  0  0
  3  9  2  0  0  0  0
  9 10  1  0  0  0  0
 10 11  1  0  0  0  0
 11  2  2  0  0  0  0
 11 12  1  0  0  0  0
 12 13  2  0  0  0  0
 13 14  1  0  0  0  0
 14 15  2  0  0  0  0
 15 16  1  0  0  0  0
 16 17  2  0  0  0  0
 17 12  1  0  0  0  0
 16 18  1  0  0  0  0
 18 19  1  0  0  0  0
 19 20  1  0  0  0  0
 20 21  1  0  0  0  0
 21 22  1  0  0  0  0
 22 23  1  0  0  0  0
 23 24  1  0  0  0  0
 24 19  1  0  0  0  0
 22 25  1  0  0  0  0
 25 26  2  0  0  0  0
 25 27  2  0  0  0  0
 25 28  1  0  0  0  0
 28 29  1  0  0  0  0
 29 30  2  0  0  0  0
 30 31  1  0  0  0  0
 31 32  2  0  0  0  0
 32 33  1  0  0  0  0
 33 34  2  0  0  0  0
 34 29  1  0  0  0  0
  9 35  1  0  0  0  0
 35 36  2  0  0  0  0
 35 37  1  0  0  0  0
M  CHG  2   8  -1  37  -1
M  END
> <ID>
L08

> <FEP+ dG (kcal/mol)>
-9.73

> <Experimental dG (kcal/mol)>
-11.01

> <System Name>
PTP1B

> <Similarity to L01 Reference (FCFP_4)>
0.830508

> <SMILES>
Cc1c(OCC(=O)[O-])c(sc1c2cccc(c2)NC3CCN(CC3)S(=O)(=O)Cc4ccccc4)C(=O)[O-]

> <Net Charge of Ligand in FEP/MELD>
-2

$$$$

  Mt7.00  01062308342D

 31 33  0  0  0  0  0  0  0  0999 V2000
   13.4840    0.0000    0.0000 C   0  0  0  0  0  0  0  0  0  0  0  0
   12.4840    0.0000    0.0000 O   0  0  0  0  0  0  0  0  0  0  0  0
   11.9840    0.8660    0.0000 C   0  0  0  0  0  0  0  0  0  0  0  0
   12.4840    1.7321    0.0000 O   0  0  0  0  0  0  0  0  0  0  0  0
   10.9840    0.8660    0.0000 N   0  0  0  0  0  0  0  0  0  0  0  0
   10.4840    1.7321    0.0000 C   0  0  0  0  0  0  0  0  0  0  0  0
    9.4840    1.7321    0.0000 C   0  0  0  0  0  0  0  0  0  0  0  0
    8.9840    0.8660    0.0000 C   0  0  0  0  0  0  0  0  0  0  0  0
    9.4840    0.0000    0.0000 C   0  0  0  0  0  0  0  0  0  0  0  0
   10.4840    0.0000    0.0000 C   0  0  0  0  0  0  0  0  0  0  0  0
    7.9840    0.8660    0.0000 N   0  0  0  0  0  0  0  0  0  0  0  0
    7.4840    1.7321    0.0000 C   0  0  0  0  0  0  0  0  0  0  0  0
    7.9840    2.5981    0.0000 C   0  0  0  0  0  0  0  0  0  0  0  0
    7.4840    3.4641    0.0000 C   0  0  0  0  0  0  0  0  0  0  0  0
    6.4840    3.4641    0.0000 C   0  0  0  0  0  0  0  0  0  0  0  0
    5.9840    2.5981    0.0000 C   0  0  0  0  0  0  0  0  0  0  0  0
    6.4840    1.7321    0.0000 C   0  0  0  0  0  0  0  0  0  0  0  0
    4.9840    2.5981    0.0000 C   0  0  0  0  0  0  0  0  0  0  0  0
    4.3962    3.4071    0.0000 S   0  0  0  0  0  0  0  0  0  0  0  0
    3.4451    3.0981    0.0000 C   0  0  0  0  0  0  0  0  0  0  0  0
    2.6361    3.6859    0.0000 C   0  0  0  0  0  0  0  0  0  0  0  0
    1.7226    3.2791    0.0000 O   0  0  0  0  0  0  0  0  0  0  0  0
    2.7406    4.6804    0.0000 O   0  5  0  0  0  0  0  0  0  0  0  0
    3.4451    2.0981    0.0000 C   0  0  0  0  0  0  0  0  0  0  0  0
    2.6361    1.5103    0.0000 O   0  0  0  0  0  0  0  0  0  0  0  0
    1.7226    1.9170    0.0000 C   0  0  0  0  0  0  0  0  0  0  0  0
    0.9135    1.3292    0.0000 C   0  0  0  0  0  0  0  0  0  0  0  0
    1.0181    0.3347    0.0000 O   0  0  0  0  0  0  0  0  0  0  0  0
    0.0000    1.7360    0.0000 O   0  5  0  0  0  0  0  0  0  0  0  0
    4.3962    1.7891    0.0000 C   0  0  0  0  0  0  0  0  0  0  0  0
    4.7052    0.8380    0.0000 Br  0  0  0  0  0  0  0  0  0  0  0  0
  1  2  1  0  0  0  0
  2  3  1  0  0  0  0
  3  4  2  0  0  0  0
  3  5  1  0  0  0  0
  5  6  1  0  0  0  0
  6  7  1  0  0  0  0
  7  8  1  0  0  0  0
  8  9  1  0  0  0  0
  9 10  1  0  0  0  0
 10  5  1  0  0  0  0
  8 11  1  0  0  0  0
 11 12  1  0  0  0  0
 12 13  2  0  0  0  0
 13 14  1  0  0  0  0
 14 15  2  0  0  0  0
 15 16  1  0  0  0  0
 16 17  2  0  0  0  0
 17 12  1  0  0  0  0
 16 18  1  0  0  0  0
 18 19  1  0  0  0  0
 19 20  1  0  0  0  0
 20 21  1  0  0  0  0
 21 22  2  0  0  0  0
 21 23  1  0  0  0  0
 20 24  2  0  0  0  0
 24 25  1  0  0  0  0
 25 26  1  0  0  0  0
 26 27  1  0  0  0  0
 27 28  2  0  0  0  0
 27 29  1  0  0  0  0
 24 30  1  0  0  0  0
 30 18  2  0  0  0  0
 30 31  1  0  0  0  0
M  CHG  2  23  -1  29  -1
M  END
> <ID>
L09

> <FEP+ dG (kcal/mol)>
-9.4

> <Experimental dG (kcal/mol)>
-8.72

> <System Name>
PTP1B

> <Similarity to L01 Reference (FCFP_4)>
0.65625

> <SMILES>
COC(=O)N1CCC(CC1)Nc2cccc(c2)c3sc(C(=O)[O-])c(OCC(=O)[O-])c3Br

> <Net Charge of Ligand in FEP/MELD>
-2

$$$$

  Mt7.00  01062308342D

 30 32  0  0  0  0  0  0  0  0999 V2000
   12.4840    1.7321    0.0000 C   0  0  0  0  0  0  0  0  0  0  0  0
   11.9840    0.8660    0.0000 C   0  0  0  0  0  0  0  0  0  0  0  0
   12.4840    0.0000    0.0000 O   0  0  0  0  0  0  0  0  0  0  0  0
   10.9840    0.8660    0.0000 N   0  0  0  0  0  0  0  0  0  0  0  0
   10.4840    1.7321    0.0000 C   0  0  0  0  0  0  0  0  0  0  0  0
    9.4840    1.7321    0.0000 C   0  0  0  0  0  0  0  0  0  0  0  0
    8.9840    0.8660    0.0000 C   0  0  0  0  0  0  0  0  0  0  0  0
    9.4840    0.0000    0.0000 C   0  0  0  0  0  0  0  0  0  0  0  0
   10.4840    0.0000    0.0000 C   0  0  0  0  0  0  0  0  0  0  0  0
    7.9840    0.8660    0.0000 N   0  0  0  0  0  0  0  0  0  0  0  0
    7.4840    1.7321    0.0000 C   0  0  0  0  0  0  0  0  0  0  0  0
    7.9840    2.5981    0.0000 C   0  0  0  0  0  0  0  0  0  0  0  0
    7.4840    3.4641    0.0000 C   0  0  0  0  0  0  0  0  0  0  0  0
    6.4840    3.4641    0.0000 C   0  0  0  0  0  0  0  0  0  0  0  0
    5.9840    2.5981    0.0000 C   0  0  0  0  0  0  0  0  0  0  0  0
    6.4840    1.7321    0.0000 C   0  0  0  0  0  0  0  0  0  0  0  0
    4.9840    2.5981    0.0000 C   0  0  0  0  0  0  0  0  0  0  0  0
    4.3962    3.4071    0.0000 S   0  0  0  0  0  0  0  0  0  0  0  0
    3.4451    3.0981    0.0000 C   0  0  0  0  0  0  0  0  0  0  0  0
    2.6361    3.6859    0.0000 C   0  0  0  0  0  0  0  0  0  0  0  0
    1.7226    3.2791    0.0000 O   0  0  0  0  0  0  0  0  0  0  0  0
    2.7406    4.6804    0.0000 O   0  5  0  0  0  0  0  0  0  0  0  0
    3.4451    2.0981    0.0000 C   0  0  0  0  0  0  0  0  0  0  0  0
    2.6361    1.5103    0.0000 O   0  0  0  0  0  0  0  0  0  0  0  0
    1.7226    1.9170    0.0000 C   0  0  0  0  0  0  0  0  0  0  0  0
    0.9135    1.3292    0.0000 C   0  0  0  0  0  0  0  0  0  0  0  0
    1.0181    0.3347    0.0000 O   0  0  0  0  0  0  0  0  0  0  0  0
    0.0000    1.7360    0.0000 O   0  5  0  0  0  0  0  0  0  0  0  0
    4.3962    1.7891    0.0000 C   0  0  0  0  0  0  0  0  0  0  0  0
    4.7052    0.8380    0.0000 Br  0  0  0  0  0  0  0  0  0  0  0  0
  1  2  1  0  0  0  0
  2  3  2  0  0  0  0
  2  4  1  0  0  0  0
  4  5  1  0  0  0  0
  5  6  1  0  0  0  0
  6  7  1  0  0  0  0
  7  8  1  0  0  0  0
  8  9  1  0  0  0  0
  9  4  1  0  0  0  0
  7 10  1  0  0  0  0
 10 11  1  0  0  0  0
 11 12  2  0  0  0  0
 12 13  1  0  0  0  0
 13 14  2  0  0  0  0
 14 15  1  0  0  0  0
 15 16  2  0  0  0  0
 16 11  1  0  0  0  0
 15 17  1  0  0  0  0
 17 18  1  0  0  0  0
 18 19  1  0  0  0  0
 19 20  1  0  0  0  0
 20 21  2  0  0  0  0
 20 22  1  0  0  0  0
 19 23  2  0  0  0  0
 23 24  1  0  0  0  0
 24 25  1  0  0  0  0
 25 26  1  0  0  0  0
 26 27  2  0  0  0  0
 26 28  1  0  0  0  0
 23 29  1  0  0  0  0
 29 17  2  0  0  0  0
 29 30  1  0  0  0  0
M  CHG  2  22  -1  28  -1
M  END
> <ID>
L10

> <FEP+ dG (kcal/mol)>
-9.36

> <Experimental dG (kcal/mol)>
-9.14

> <System Name>
PTP1B

> <Similarity to L01 Reference (FCFP_4)>
0.677419

> <SMILES>
CC(=O)N1CCC(CC1)Nc2cccc(c2)c3sc(C(=O)[O-])c(OCC(=O)[O-])c3Br

> <Net Charge of Ligand in FEP/MELD>
-2

$$$$

  Mt7.00  01062308342D

 28 30  0  0  0  0  0  0  0  0999 V2000
   10.1565    5.1189    0.0000 O   0  0  0  0  0  0  0  0  0  0  0  0
    9.2430    5.5256    0.0000 C   0  0  0  0  0  0  0  0  0  0  0  0
    9.1385    6.5202    0.0000 O   0  5  0  0  0  0  0  0  0  0  0  0
    8.4340    4.9378    0.0000 C   0  0  0  0  0  0  0  0  0  0  0  0
    8.5385    3.9433    0.0000 O   0  0  0  0  0  0  0  0  0  0  0  0
    7.7295    3.3555    0.0000 C   0  0  0  0  0  0  0  0  0  0  0  0
    6.7784    3.6646    0.0000 C   0  0  0  0  0  0  0  0  0  0  0  0
    6.4694    4.6156    0.0000 Br  0  0  0  0  0  0  0  0  0  0  0  0
    6.1906    2.8555    0.0000 C   0  0  0  0  0  0  0  0  0  0  0  0
    6.7784    2.0465    0.0000 S   0  0  0  0  0  0  0  0  0  0  0  0
    7.7295    2.3555    0.0000 C   0  0  0  0  0  0  0  0  0  0  0  0
    8.5385    1.7678    0.0000 C   0  0  0  0  0  0  0  0  0  0  0  0
    9.4520    2.1745    0.0000 O   0  0  0  0  0  0  0  0  0  0  0  0
    8.4340    0.7732    0.0000 O   0  5  0  0  0  0  0  0  0  0  0  0
    5.1906    2.8555    0.0000 C   0  0  0  0  0  0  0  0  0  0  0  0
    4.6906    3.7216    0.0000 C   0  0  0  0  0  0  0  0  0  0  0  0
    3.6906    3.7216    0.0000 C   0  0  0  0  0  0  0  0  0  0  0  0
    3.1906    2.8555    0.0000 C   0  0  0  0  0  0  0  0  0  0  0  0
    3.6906    1.9895    0.0000 C   0  0  0  0  0  0  0  0  0  0  0  0
    4.6906    1.9895    0.0000 C   0  0  0  0  0  0  0  0  0  0  0  0
    3.1906    1.1235    0.0000 N   0  0  0  0  0  0  0  0  0  0  0  0
    2.1906    1.1235    0.0000 C   0  0  0  0  0  0  0  0  0  0  0  0
    1.7568    2.0245    0.0000 C   0  0  0  0  0  0  0  0  0  0  0  0
    0.7818    2.2470    0.0000 C   0  0  0  0  0  0  0  0  0  0  0  0
    0.0000    1.6235    0.0000 C   0  0  0  0  0  0  0  0  0  0  0  0
    0.0000    0.6235    0.0000 C   0  0  0  0  0  0  0  0  0  0  0  0
    0.7818    0.0000    0.0000 C   0  0  0  0  0  0  0  0  0  0  0  0
    1.7568    0.2225    0.0000 C   0  0  0  0  0  0  0  0  0  0  0  0
  1  2  2  0  0  0  0
  2  3  1  0  0  0  0
  2  4  1  0  0  0  0
  4  5  1  0  0  0  0
  5  6  1  0  0  0  0
  6  7  1  0  0  0  0
  7  8  1  0  0  0  0
  7  9  2  0  0  0  0
  9 10  1  0  0  0  0
 10 11  1  0  0  0  0
 11  6  2  0  0  0  0
 11 12  1  0  0  0  0
 12 13  2  0  0  0  0
 12 14  1  0  0  0  0
  9 15  1  0  0  0  0
 15 16  2  0  0  0  0
 16 17  1  0  0  0  0
 17 18  2  0  0  0  0
 18 19  1  0  0  0  0
 19 20  2  0  0  0  0
 20 15  1  0  0  0  0
 19 21  1  0  0  0  0
 21 22  1  0  0  0  0
 22 23  1  0  0  0  0
 23 24  1  0  0  0  0
 24 25  1  0  0  0  0
 25 26  1  0  0  0  0
 26 27  1  0  0  0  0
 27 28  1  0  0  0  0
 28 22  1  0  0  0  0
M  CHG  2   3  -1  14  -1
M  END
> <ID>
L11

> <FEP+ dG (kcal/mol)>
-9.32

> <Experimental dG (kcal/mol)>
-9.41

> <System Name>
PTP1B

> <Similarity to L01 Reference (FCFP_4)>
0.736842

> <SMILES>
O=C([O-])COc1c(Br)c(sc1C(=O)[O-])c2cccc(c2)NC3CCCCCC3

> <Net Charge of Ligand in FEP/MELD>
-2

$$$$

  Mt7.00  01062308342D

 27 29  0  0  0  0  0  0  0  0999 V2000
    9.9659    4.8614    0.0000 O   0  0  0  0  0  0  0  0  0  0  0  0
    9.0523    5.2682    0.0000 C   0  0  0  0  0  0  0  0  0  0  0  0
    8.9478    6.2627    0.0000 O   0  5  0  0  0  0  0  0  0  0  0  0
    8.2433    4.6804    0.0000 C   0  0  0  0  0  0  0  0  0  0  0  0
    8.3479    3.6859    0.0000 O   0  0  0  0  0  0  0  0  0  0  0  0
    7.5388    3.0981    0.0000 C   0  0  0  0  0  0  0  0  0  0  0  0
    6.5878    3.4071    0.0000 C   0  0  0  0  0  0  0  0  0  0  0  0
    6.2788    4.3581    0.0000 Br  0  0  0  0  0  0  0  0  0  0  0  0
    6.0000    2.5981    0.0000 C   0  0  0  0  0  0  0  0  0  0  0  0
    6.5878    1.7891    0.0000 S   0  0  0  0  0  0  0  0  0  0  0  0
    7.5388    2.0981    0.0000 C   0  0  0  0  0  0  0  0  0  0  0  0
    8.3479    1.5103    0.0000 C   0  0  0  0  0  0  0  0  0  0  0  0
    9.2614    1.9170    0.0000 O   0  0  0  0  0  0  0  0  0  0  0  0
    8.2433    0.5158    0.0000 O   0  5  0  0  0  0  0  0  0  0  0  0
    5.0000    2.5981    0.0000 C   0  0  0  0  0  0  0  0  0  0  0  0
    4.5000    3.4641    0.0000 C   0  0  0  0  0  0  0  0  0  0  0  0
    3.5000    3.4641    0.0000 C   0  0  0  0  0  0  0  0  0  0  0  0
    3.0000    2.5981    0.0000 C   0  0  0  0  0  0  0  0  0  0  0  0
    3.5000    1.7321    0.0000 C   0  0  0  0  0  0  0  0  0  0  0  0
    4.5000    1.7321    0.0000 C   0  0  0  0  0  0  0  0  0  0  0  0
    3.0000    0.8660    0.0000 N   0  0  0  0  0  0  0  0  0  0  0  0
    2.0000    0.8660    0.0000 C   0  0  0  0  0  0  0  0  0  0  0  0
    1.5000    1.7321    0.0000 C   0  0  0  0  0  0  0  0  0  0  0  0
    0.5000    1.7321    0.0000 C   0  0  0  0  0  0  0  0  0  0  0  0
    0.0000    0.8660    0.0000 O   0  0  0  0  0  0  0  0  0  0  0  0
    0.5000    0.0000    0.0000 C   0  0  0  0  0  0  0  0  0  0  0  0
    1.5000    0.0000    0.0000 C   0  0  0  0  0  0  0  0  0  0  0  0
  1  2  2  0  0  0  0
  2  3  1  0  0  0  0
  2  4  1  0  0  0  0
  4  5  1  0  0  0  0
  5  6  1  0  0  0  0
  6  7  1  0  0  0  0
  7  8  1  0  0  0  0
  7  9  2  0  0  0  0
  9 10  1  0  0  0  0
 10 11  1  0  0  0  0
 11  6  2  0  0  0  0
 11 12  1  0  0  0  0
 12 13  2  0  0  0  0
 12 14  1  0  0  0  0
  9 15  1  0  0  0  0
 15 16  2  0  0  0  0
 16 17  1  0  0  0  0
 17 18  2  0  0  0  0
 18 19  1  0  0  0  0
 19 20  2  0  0  0  0
 20 15  1  0  0  0  0
 19 21  1  0  0  0  0
 21 22  1  0  0  0  0
 22 23  1  0  0  0  0
 23 24  1  0  0  0  0
 24 25  1  0  0  0  0
 25 26  1  0  0  0  0
 26 27  1  0  0  0  0
 27 22  1  0  0  0  0
M  CHG  2   3  -1  14  -1
M  END
> <ID>
L12

> <FEP+ dG (kcal/mol)>
-9.09

> <Experimental dG (kcal/mol)>
-8.85

> <System Name>
PTP1B

> <Similarity to L01 Reference (FCFP_4)>
0.711864

> <SMILES>
O=C([O-])COc1c(Br)c(sc1C(=O)[O-])c2cccc(c2)NC3CCOCC3

> <Net Charge of Ligand in FEP/MELD>
-2

$$$$

  Mt7.00  01062308342D

 28 30  0  0  0  0  0  0  0  0999 V2000
    9.9659    6.5935    0.0000 O   0  0  0  0  0  0  0  0  0  0  0  0
    9.0523    7.0002    0.0000 C   0  0  0  0  0  0  0  0  0  0  0  0
    8.9478    7.9947    0.0000 O   0  5  0  0  0  0  0  0  0  0  0  0
    8.2433    6.4124    0.0000 C   0  0  0  0  0  0  0  0  0  0  0  0
    8.3479    5.4179    0.0000 O   0  0  0  0  0  0  0  0  0  0  0  0
    7.5388    4.8301    0.0000 C   0  0  0  0  0  0  0  0  0  0  0  0
    6.5878    5.1391    0.0000 C   0  0  0  0  0  0  0  0  0  0  0  0
    6.2788    6.0902    0.0000 Br  0  0  0  0  0  0  0  0  0  0  0  0
    6.0000    4.3301    0.0000 C   0  0  0  0  0  0  0  0  0  0  0  0
    6.5878    3.5211    0.0000 S   0  0  0  0  0  0  0  0  0  0  0  0
    7.5388    3.8301    0.0000 C   0  0  0  0  0  0  0  0  0  0  0  0
    8.3479    3.2423    0.0000 C   0  0  0  0  0  0  0  0  0  0  0  0
    9.2614    3.6491    0.0000 O   0  0  0  0  0  0  0  0  0  0  0  0
    8.2433    2.2478    0.0000 O   0  5  0  0  0  0  0  0  0  0  0  0
    5.0000    4.3301    0.0000 C   0  0  0  0  0  0  0  0  0  0  0  0
    4.5000    5.1962    0.0000 C   0  0  0  0  0  0  0  0  0  0  0  0
    3.5000    5.1962    0.0000 C   0  0  0  0  0  0  0  0  0  0  0  0
    3.0000    4.3301    0.0000 C   0  0  0  0  0  0  0  0  0  0  0  0
    3.5000    3.4641    0.0000 C   0  0  0  0  0  0  0  0  0  0  0  0
    4.5000    3.4641    0.0000 C   0  0  0  0  0  0  0  0  0  0  0  0
    3.0000    2.5981    0.0000 N   0  0  0  0  0  0  0  0  0  0  0  0
    2.0000    2.5981    0.0000 C   0  0  0  0  0  0  0  0  0  0  0  0
    1.5000    1.7321    0.0000 C   0  0  0  0  0  0  0  0  0  0  0  0
    0.5000    1.7321    0.0000 C   0  0  0  0  0  0  0  0  0  0  0  0
    0.0000    0.8660    0.0000 C   0  0  0  0  0  0  0  0  0  0  0  0
    0.5000    0.0000    0.0000 C   0  0  0  0  0  0  0  0  0  0  0  0
    1.5000    0.0000    0.0000 C   0  0  0  0  0  0  0  0  0  0  0  0
    2.0000    0.8660    0.0000 C   0  0  0  0  0  0  0  0  0  0  0  0
  1  2  2  0  0  0  0
  2  3  1  0  0  0  0
  2  4  1  0  0  0  0
  4  5  1  0  0  0  0
  5  6  1  0  0  0  0
  6  7  1  0  0  0  0
  7  8  1  0  0  0  0
  7  9  2  0  0  0  0
  9 10  1  0  0  0  0
 10 11  1  0  0  0  0
 11  6  2  0  0  0  0
 11 12  1  0  0  0  0
 12 13  2  0  0  0  0
 12 14  1  0  0  0  0
  9 15  1  0  0  0  0
 15 16  2  0  0  0  0
 16 17  1  0  0  0  0
 17 18  2  0  0  0  0
 18 19  1  0  0  0  0
 19 20  2  0  0  0  0
 20 15  1  0  0  0  0
 19 21  1  0  0  0  0
 21 22  1  0  0  0  0
 22 23  1  0  0  0  0
 23 24  1  0  0  0  0
 24 25  1  0  0  0  0
 25 26  1  0  0  0  0
 26 27  1  0  0  0  0
 27 28  1  0  0  0  0
 28 23  1  0  0  0  0
M  CHG  2   3  -1  14  -1
M  END
> <ID>
L13

> <FEP+ dG (kcal/mol)>
-9.06

> <Experimental dG (kcal/mol)>
-9.11

> <System Name>
PTP1B

> <Similarity to L01 Reference (FCFP_4)>
0.629032

> <SMILES>
O=C([O-])COc1c(Br)c(sc1C(=O)[O-])c2cccc(c2)NCC3CCCCC3

> <Net Charge of Ligand in FEP/MELD>
-2

$$$$

  Mt7.00  01062308342D

 26 28  0  0  0  0  0  0  0  0999 V2000
    9.5047    4.8044    0.0000 O   0  0  0  0  0  0  0  0  0  0  0  0
    8.5912    5.2112    0.0000 C   0  0  0  0  0  0  0  0  0  0  0  0
    8.4867    6.2057    0.0000 O   0  5  0  0  0  0  0  0  0  0  0  0
    7.7822    4.6234    0.0000 C   0  0  0  0  0  0  0  0  0  0  0  0
    7.8867    3.6289    0.0000 O   0  0  0  0  0  0  0  0  0  0  0  0
    7.0777    3.0411    0.0000 C   0  0  0  0  0  0  0  0  0  0  0  0
    6.1266    3.3501    0.0000 C   0  0  0  0  0  0  0  0  0  0  0  0
    5.8176    4.3011    0.0000 Br  0  0  0  0  0  0  0  0  0  0  0  0
    5.5388    2.5411    0.0000 C   0  0  0  0  0  0  0  0  0  0  0  0
    6.1266    1.7321    0.0000 S   0  0  0  0  0  0  0  0  0  0  0  0
    7.0777    2.0411    0.0000 C   0  0  0  0  0  0  0  0  0  0  0  0
    7.8867    1.4533    0.0000 C   0  0  0  0  0  0  0  0  0  0  0  0
    8.8002    1.8600    0.0000 O   0  0  0  0  0  0  0  0  0  0  0  0
    7.7822    0.4588    0.0000 O   0  5  0  0  0  0  0  0  0  0  0  0
    4.5388    2.5411    0.0000 C   0  0  0  0  0  0  0  0  0  0  0  0
    4.0388    3.4071    0.0000 C   0  0  0  0  0  0  0  0  0  0  0  0
    3.0388    3.4071    0.0000 C   0  0  0  0  0  0  0  0  0  0  0  0
    2.5388    2.5411    0.0000 C   0  0  0  0  0  0  0  0  0  0  0  0
    3.0388    1.6750    0.0000 C   0  0  0  0  0  0  0  0  0  0  0  0
    4.0388    1.6750    0.0000 C   0  0  0  0  0  0  0  0  0  0  0  0
    2.5388    0.8090    0.0000 N   0  0  0  0  0  0  0  0  0  0  0  0
    1.5388    0.8090    0.0000 C   0  0  0  0  0  0  0  0  0  0  0  0
    0.9511    1.6180    0.0000 C   0  0  0  0  0  0  0  0  0  0  0  0
    0.0000    1.3090    0.0000 C   0  0  0  0  0  0  0  0  0  0  0  0
    0.0000    0.3090    0.0000 C   0  0  0  0  0  0  0  0  0  0  0  0
    0.9511    0.0000    0.0000 C   0  0  0  0  0  0  0  0  0  0  0  0
  1  2  2  0  0  0  0
  2  3  1  0  0  0  0
  2  4  1  0  0  0  0
  4  5  1  0  0  0  0
  5  6  1  0  0  0  0
  6  7  1  0  0  0  0
  7  8  1  0  0  0  0
  7  9  2  0  0  0  0
  9 10  1  0  0  0  0
 10 11  1  0  0  0  0
 11  6  2  0  0  0  0
 11 12  1  0  0  0  0
 12 13  2  0  0  0  0
 12 14  1  0  0  0  0
  9 15  1  0  0  0  0
 15 16  2  0  0  0  0
 16 17  1  0  0  0  0
 17 18  2  0  0  0  0
 18 19  1  0  0  0  0
 19 20  2  0  0  0  0
 20 15  1  0  0  0  0
 19 21  1  0  0  0  0
 21 22  1  0  0  0  0
 22 23  1  0  0  0  0
 23 24  1  0  0  0  0
 24 25  1  0  0  0  0
 25 26  1  0  0  0  0
 26 22  1  0  0  0  0
M  CHG  2   3  -1  14  -1
M  END
> <ID>
L14

> <FEP+ dG (kcal/mol)>
-8.98

> <Experimental dG (kcal/mol)>
-8.72

> <System Name>
PTP1B

> <Similarity to L01 Reference (FCFP_4)>
0.736842

> <SMILES>
O=C([O-])COc1c(Br)c(sc1C(=O)[O-])c2cccc(c2)NC3CCCC3

> <Net Charge of Ligand in FEP/MELD>
-2

$$$$

  Mt7.00  01062308342D

 31 33  0  0  0  0  0  0  0  0999 V2000
   11.9659    4.9954    0.0000 O   0  0  0  0  0  0  0  0  0  0  0  0
   11.0523    5.4021    0.0000 C   0  0  0  0  0  0  0  0  0  0  0  0
   10.9478    6.3967    0.0000 O   0  5  0  0  0  0  0  0  0  0  0  0
   10.2433    4.8144    0.0000 C   0  0  0  0  0  0  0  0  0  0  0  0
   10.3479    3.8198    0.0000 O   0  0  0  0  0  0  0  0  0  0  0  0
    9.5388    3.2321    0.0000 C   0  0  0  0  0  0  0  0  0  0  0  0
    8.5878    3.5411    0.0000 C   0  0  0  0  0  0  0  0  0  0  0  0
    8.2788    4.4921    0.0000 Br  0  0  0  0  0  0  0  0  0  0  0  0
    8.0000    2.7321    0.0000 C   0  0  0  0  0  0  0  0  0  0  0  0
    8.5878    1.9230    0.0000 S   0  0  0  0  0  0  0  0  0  0  0  0
    9.5388    2.2321    0.0000 C   0  0  0  0  0  0  0  0  0  0  0  0
   10.3479    1.6443    0.0000 C   0  0  0  0  0  0  0  0  0  0  0  0
   11.2614    2.0510    0.0000 O   0  0  0  0  0  0  0  0  0  0  0  0
   10.2433    0.6497    0.0000 O   0  5  0  0  0  0  0  0  0  0  0  0
    7.0000    2.7321    0.0000 C   0  0  0  0  0  0  0  0  0  0  0  0
    6.5000    3.5981    0.0000 C   0  0  0  0  0  0  0  0  0  0  0  0
    5.5000    3.5981    0.0000 C   0  0  0  0  0  0  0  0  0  0  0  0
    5.0000    2.7321    0.0000 C   0  0  0  0  0  0  0  0  0  0  0  0
    5.5000    1.8660    0.0000 C   0  0  0  0  0  0  0  0  0  0  0  0
    6.5000    1.8660    0.0000 C   0  0  0  0  0  0  0  0  0  0  0  0
    5.0000    1.0000    0.0000 N   0  0  0  0  0  0  0  0  0  0  0  0
    4.0000    1.0000    0.0000 S   0  0  0  0  0  0  0  0  0  0  0  0
    4.0000    2.0000    0.0000 O   0  0  0  0  0  0  0  0  0  0  0  0
    4.0000    0.0000    0.0000 O   0  0  0  0  0  0  0  0  0  0  0  0
    3.0000    1.0000    0.0000 C   0  0  0  0  0  0  0  0  0  0  0  0
    2.5000    1.8660    0.0000 C   0  0  0  0  0  0  0  0  0  0  0  0
    1.5000    1.8660    0.0000 C   0  0  0  0  0  0  0  0  0  0  0  0
    1.0000    1.0000    0.0000 C   0  0  0  0  0  0  0  0  0  0  0  0
    0.0000    1.0000    0.0000 F   0  0  0  0  0  0  0  0  0  0  0  0
    1.5000    0.1340    0.0000 C   0  0  0  0  0  0  0  0  0  0  0  0
    2.5000    0.1340    0.0000 C   0  0  0  0  0  0  0  0  0  0  0  0
  1  2  2  0  0  0  0
  2  3  1  0  0  0  0
  2  4  1  0  0  0  0
  4  5  1  0  0  0  0
  5  6  1  0  0  0  0
  6  7  1  0  0  0  0
  7  8  1  0  0  0  0
  7  9  2  0  0  0  0
  9 10  1  0  0  0  0
 10 11  1  0  0  0  0
 11  6  2  0  0  0  0
 11 12  1  0  0  0  0
 12 13  2  0  0  0  0
 12 14  1  0  0  0  0
  9 15  1  0  0  0  0
 15 16  2  0  0  0  0
 16 17  1  0  0  0  0
 17 18  2  0  0  0  0
 18 19  1  0  0  0  0
 19 20  2  0  0  0  0
 20 15  1  0  0  0  0
 19 21  1  0  0  0  0
 21 22  1  0  0  0  0
 22 23  2  0  0  0  0
 22 24  2  0  0  0  0
 22 25  1  0  0  0  0
 25 26  2  0  0  0  0
 26 27  1  0  0  0  0
 27 28  2  0  0  0  0
 28 29  1  0  0  0  0
 28 30  1  0  0  0  0
 30 31  2  0  0  0  0
 31 25  1  0  0  0  0
M  CHG  2   3  -1  14  -1
M  END
> <ID>
L15

> <FEP+ dG (kcal/mol)>
-8.61

> <Experimental dG (kcal/mol)>
-8.65

> <System Name>
PTP1B

> <Similarity to L01 Reference (FCFP_4)>
0.655738

> <SMILES>
O=C([O-])COc1c(Br)c(sc1C(=O)[O-])c2cccc(c2)NS(=O)(=O)c3ccc(F)cc3

> <Net Charge of Ligand in FEP/MELD>
-2

$$$$

  Mt7.00  01062308342D

 28 30  0  0  0  0  0  0  0  0999 V2000
    9.9659    6.5935    0.0000 O   0  0  0  0  0  0  0  0  0  0  0  0
    9.0523    7.0002    0.0000 C   0  0  0  0  0  0  0  0  0  0  0  0
    8.9478    7.9947    0.0000 O   0  5  0  0  0  0  0  0  0  0  0  0
    8.2433    6.4124    0.0000 C   0  0  0  0  0  0  0  0  0  0  0  0
    8.3479    5.4179    0.0000 O   0  0  0  0  0  0  0  0  0  0  0  0
    7.5388    4.8301    0.0000 C   0  0  0  0  0  0  0  0  0  0  0  0
    6.5878    5.1391    0.0000 C   0  0  0  0  0  0  0  0  0  0  0  0
    6.2788    6.0902    0.0000 Br  0  0  0  0  0  0  0  0  0  0  0  0
    6.0000    4.3301    0.0000 C   0  0  0  0  0  0  0  0  0  0  0  0
    6.5878    3.5211    0.0000 S   0  0  0  0  0  0  0  0  0  0  0  0
    7.5388    3.8301    0.0000 C   0  0  0  0  0  0  0  0  0  0  0  0
    8.3479    3.2423    0.0000 C   0  0  0  0  0  0  0  0  0  0  0  0
    9.2614    3.6491    0.0000 O   0  0  0  0  0  0  0  0  0  0  0  0
    8.2433    2.2478    0.0000 O   0  5  0  0  0  0  0  0  0  0  0  0
    5.0000    4.3301    0.0000 C   0  0  0  0  0  0  0  0  0  0  0  0
    4.5000    5.1962    0.0000 C   0  0  0  0  0  0  0  0  0  0  0  0
    3.5000    5.1962    0.0000 C   0  0  0  0  0  0  0  0  0  0  0  0
    3.0000    4.3301    0.0000 C   0  0  0  0  0  0  0  0  0  0  0  0
    3.5000    3.4641    0.0000 C   0  0  0  0  0  0  0  0  0  0  0  0
    4.5000    3.4641    0.0000 C   0  0  0  0  0  0  0  0  0  0  0  0
    3.0000    2.5981    0.0000 N   0  0  0  0  0  0  0  0  0  0  0  0
    2.0000    2.5981    0.0000 C   0  0  0  0  0  0  0  0  0  0  0  0
    1.5000    1.7321    0.0000 C   0  0  0  0  0  0  0  0  0  0  0  0
    0.5000    1.7321    0.0000 C   0  0  0  0  0  0  0  0  0  0  0  0
    0.0000    0.8660    0.0000 C   0  0  0  0  0  0  0  0  0  0  0  0
    0.5000    0.0000    0.0000 C   0  0  0  0  0  0  0  0  0  0  0  0
    1.5000    0.0000    0.0000 C   0  0  0  0  0  0  0  0  0  0  0  0
    2.0000    0.8660    0.0000 C   0  0  0  0  0  0  0  0  0  0  0  0
  1  2  2  0  0  0  0
  2  3  1  0  0  0  0
  2  4  1  0  0  0  0
  4  5  1  0  0  0  0
  5  6  1  0  0  0  0
  6  7  1  0  0  0  0
  7  8  1  0  0  0  0
  7  9  2  0  0  0  0
  9 10  1  0  0  0  0
 10 11  1  0  0  0  0
 11  6  2  0  0  0  0
 11 12  1  0  0  0  0
 12 13  2  0  0  0  0
 12 14  1  0  0  0  0
  9 15  1  0  0  0  0
 15 16  2  0  0  0  0
 16 17  1  0  0  0  0
 17 18  2  0  0  0  0
 18 19  1  0  0  0  0
 19 20  2  0  0  0  0
 20 15  1  0  0  0  0
 19 21  1  0  0  0  0
 21 22  1  0  0  0  0
 22 23  1  0  0  0  0
 23 24  2  0  0  0  0
 24 25  1  0  0  0  0
 25 26  2  0  0  0  0
 26 27  1  0  0  0  0
 27 28  2  0  0  0  0
 28 23  1  0  0  0  0
M  CHG  2   3  -1  14  -1
M  END
> <ID>
L16

> <FEP+ dG (kcal/mol)>
-8.43

> <Experimental dG (kcal/mol)>
-8.61

> <System Name>
PTP1B

> <Similarity to L01 Reference (FCFP_4)>
0.677966

> <SMILES>
O=C([O-])COc1c(Br)c(sc1C(=O)[O-])c2cccc(c2)NCc3ccccc3

> <Net Charge of Ligand in FEP/MELD>
-2

$$$$

  Mt7.00  01062308342D

 28 30  0  0  0  0  0  0  0  0999 V2000
    9.9659    6.5935    0.0000 O   0  0  0  0  0  0  0  0  0  0  0  0
    9.0523    7.0002    0.0000 C   0  0  0  0  0  0  0  0  0  0  0  0
    8.9478    7.9947    0.0000 O   0  5  0  0  0  0  0  0  0  0  0  0
    8.2433    6.4124    0.0000 C   0  0  0  0  0  0  0  0  0  0  0  0
    8.3479    5.4179    0.0000 O   0  0  0  0  0  0  0  0  0  0  0  0
    7.5388    4.8301    0.0000 C   0  0  0  0  0  0  0  0  0  0  0  0
    6.5878    5.1391    0.0000 C   0  0  0  0  0  0  0  0  0  0  0  0
    6.2788    6.0902    0.0000 Br  0  0  0  0  0  0  0  0  0  0  0  0
    6.0000    4.3301    0.0000 C   0  0  0  0  0  0  0  0  0  0  0  0
    6.5878    3.5211    0.0000 S   0  0  0  0  0  0  0  0  0  0  0  0
    7.5388    3.8301    0.0000 C   0  0  0  0  0  0  0  0  0  0  0  0
    8.3479    3.2423    0.0000 C   0  0  0  0  0  0  0  0  0  0  0  0
    9.2614    3.6491    0.0000 O   0  0  0  0  0  0  0  0  0  0  0  0
    8.2433    2.2478    0.0000 O   0  5  0  0  0  0  0  0  0  0  0  0
    5.0000    4.3301    0.0000 C   0  0  0  0  0  0  0  0  0  0  0  0
    4.5000    5.1962    0.0000 C   0  0  0  0  0  0  0  0  0  0  0  0
    3.5000    5.1962    0.0000 C   0  0  0  0  0  0  0  0  0  0  0  0
    3.0000    4.3301    0.0000 C   0  0  0  0  0  0  0  0  0  0  0  0
    3.5000    3.4641    0.0000 C   0  0  0  0  0  0  0  0  0  0  0  0
    4.5000    3.4641    0.0000 C   0  0  0  0  0  0  0  0  0  0  0  0
    3.0000    2.5981    0.0000 O   0  0  0  0  0  0  0  0  0  0  0  0
    2.0000    2.5981    0.0000 C   0  0  0  0  0  0  0  0  0  0  0  0
    1.5000    1.7321    0.0000 C   0  0  0  0  0  0  0  0  0  0  0  0
    0.5000    1.7321    0.0000 C   0  0  0  0  0  0  0  0  0  0  0  0
    0.0000    0.8660    0.0000 C   0  0  0  0  0  0  0  0  0  0  0  0
    0.5000    0.0000    0.0000 C   0  0  0  0  0  0  0  0  0  0  0  0
    1.5000    0.0000    0.0000 C   0  0  0  0  0  0  0  0  0  0  0  0
    2.0000    0.8660    0.0000 C   0  0  0  0  0  0  0  0  0  0  0  0
  1  2  2  0  0  0  0
  2  3  1  0  0  0  0
  2  4  1  0  0  0  0
  4  5  1  0  0  0  0
  5  6  1  0  0  0  0
  6  7  1  0  0  0  0
  7  8  1  0  0  0  0
  7  9  2  0  0  0  0
  9 10  1  0  0  0  0
 10 11  1  0  0  0  0
 11  6  2  0  0  0  0
 11 12  1  0  0  0  0
 12 13  2  0  0  0  0
 12 14  1  0  0  0  0
  9 15  1  0  0  0  0
 15 16  2  0  0  0  0
 16 17  1  0  0  0  0
 17 18  2  0  0  0  0
 18 19  1  0  0  0  0
 19 20  2  0  0  0  0
 20 15  1  0  0  0  0
 19 21  1  0  0  0  0
 21 22  1  0  0  0  0
 22 23  1  0  0  0  0
 23 24  2  0  0  0  0
 24 25  1  0  0  0  0
 25 26  2  0  0  0  0
 26 27  1  0  0  0  0
 27 28  2  0  0  0  0
 28 23  1  0  0  0  0
M  CHG  2   3  -1  14  -1
M  END
> <ID>
L17

> <FEP+ dG (kcal/mol)>
-8.11

> <Experimental dG (kcal/mol)>
-8.39

> <System Name>
PTP1B

> <Similarity to L01 Reference (FCFP_4)>
0.548387

> <SMILES>
O=C([O-])COc1c(Br)c(sc1C(=O)[O-])c2cccc(c2)OCc3ccccc3

> <Net Charge of Ligand in FEP/MELD>
-2

$$$$

  Mt7.00  01062308342D

 27 28  0  0  0  0  0  0  0  0999 V2000
    8.9250    4.7473    0.0000 C   0  0  0  0  0  0  0  0  0  0  0  0
    7.9250    4.7473    0.0000 C   0  0  0  0  0  0  0  0  0  0  0  0
    7.4250    3.8813    0.0000 C   0  0  0  0  0  0  0  0  0  0  0  0
    7.4250    5.6133    0.0000 N   0  0  0  0  0  0  0  0  0  0  0  0
    6.4250    5.6133    0.0000 C   0  0  0  0  0  0  0  0  0  0  0  0
    5.9250    4.7473    0.0000 O   0  0  0  0  0  0  0  0  0  0  0  0
    5.9250    6.4793    0.0000 N   0  0  0  0  0  0  0  0  0  0  0  0
    4.9250    6.4793    0.0000 C   0  0  0  0  0  0  0  0  0  0  0  0
    4.4250    7.3454    0.0000 C   0  0  0  0  0  0  0  0  0  0  0  0
    3.4250    7.3454    0.0000 C   0  0  0  0  0  0  0  0  0  0  0  0
    2.9250    6.4793    0.0000 C   0  0  0  0  0  0  0  0  0  0  0  0
    3.4250    5.6133    0.0000 C   0  0  0  0  0  0  0  0  0  0  0  0
    4.4250    5.6133    0.0000 C   0  0  0  0  0  0  0  0  0  0  0  0
    2.9250    4.7473    0.0000 C   0  0  0  0  0  0  0  0  0  0  0  0
    1.9305    4.6428    0.0000 S   0  0  0  0  0  0  0  0  0  0  0  0
    1.7226    3.6646    0.0000 C   0  0  0  0  0  0  0  0  0  0  0  0
    0.8090    3.2579    0.0000 C   0  0  0  0  0  0  0  0  0  0  0  0
    0.7045    2.2634    0.0000 O   0  0  0  0  0  0  0  0  0  0  0  0
    0.0000    3.8457    0.0000 O   0  5  0  0  0  0  0  0  0  0  0  0
    2.5886    3.1646    0.0000 C   0  0  0  0  0  0  0  0  0  0  0  0
    2.6931    2.1701    0.0000 O   0  0  0  0  0  0  0  0  0  0  0  0
    1.8841    1.5823    0.0000 C   0  0  0  0  0  0  0  0  0  0  0  0
    1.9886    0.5878    0.0000 C   0  0  0  0  0  0  0  0  0  0  0  0
    2.9022    0.1810    0.0000 O   0  0  0  0  0  0  0  0  0  0  0  0
    1.1796    0.0000    0.0000 O   0  5  0  0  0  0  0  0  0  0  0  0
    3.3317    3.8337    0.0000 C   0  0  0  0  0  0  0  0  0  0  0  0
    4.3099    3.6258    0.0000 Br  0  0  0  0  0  0  0  0  0  0  0  0
  1  2  1  0  0  0  0
  2  3  1  0  0  0  0
  2  4  1  0  0  0  0
  4  5  1  0  0  0  0
  5  6  2  0  0  0  0
  5  7  1  0  0  0  0
  7  8  1  0  0  0  0
  8  9  2  0  0  0  0
  9 10  1  0  0  0  0
 10 11  2  0  0  0  0
 11 12  1  0  0  0  0
 12 13  2  0  0  0  0
 13  8  1  0  0  0  0
 12 14  1  0  0  0  0
 14 15  1  0  0  0  0
 15 16  1  0  0  0  0
 16 17  1  0  0  0  0
 17 18  2  0  0  0  0
 17 19  1  0  0  0  0
 16 20  2  0  0  0  0
 20 21  1  0  0  0  0
 21 22  1  0  0  0  0
 22 23  1  0  0  0  0
 23 24  2  0  0  0  0
 23 25  1  0  0  0  0
 20 26  1  0  0  0  0
 26 14  2  0  0  0  0
 26 27  1  0  0  0  0
M  CHG  2  19  -1  25  -1
M  END
> <ID>
L18

> <FEP+ dG (kcal/mol)>
-8.06

> <Experimental dG (kcal/mol)>
-7.72

> <System Name>
PTP1B

> <Similarity to L01 Reference (FCFP_4)>
0.629032

> <SMILES>
CC(C)NC(=O)Nc1cccc(c1)c2sc(C(=O)[O-])c(OCC(=O)[O-])c2Br

> <Net Charge of Ligand in FEP/MELD>
-2

$$$$

  Mt7.00  01062308342D

 25 26  0  0  0  0  0  0  0  0999 V2000
    7.9250    8.2114    0.0000 C   0  0  0  0  0  0  0  0  0  0  0  0
    7.4250    7.3454    0.0000 O   0  0  0  0  0  0  0  0  0  0  0  0
    6.4250    7.3454    0.0000 C   0  0  0  0  0  0  0  0  0  0  0  0
    5.9250    8.2114    0.0000 O   0  0  0  0  0  0  0  0  0  0  0  0
    5.9250    6.4793    0.0000 N   0  0  0  0  0  0  0  0  0  0  0  0
    4.9250    6.4793    0.0000 C   0  0  0  0  0  0  0  0  0  0  0  0
    4.4250    7.3454    0.0000 C   0  0  0  0  0  0  0  0  0  0  0  0
    3.4250    7.3454    0.0000 C   0  0  0  0  0  0  0  0  0  0  0  0
    2.9250    6.4793    0.0000 C   0  0  0  0  0  0  0  0  0  0  0  0
    3.4250    5.6133    0.0000 C   0  0  0  0  0  0  0  0  0  0  0  0
    4.4250    5.6133    0.0000 C   0  0  0  0  0  0  0  0  0  0  0  0
    2.9250    4.7473    0.0000 C   0  0  0  0  0  0  0  0  0  0  0  0
    1.9305    4.6428    0.0000 S   0  0  0  0  0  0  0  0  0  0  0  0
    1.7226    3.6646    0.0000 C   0  0  0  0  0  0  0  0  0  0  0  0
    0.8090    3.2579    0.0000 C   0  0  0  0  0  0  0  0  0  0  0  0
    0.7045    2.2634    0.0000 O   0  0  0  0  0  0  0  0  0  0  0  0
    0.0000    3.8457    0.0000 O   0  5  0  0  0  0  0  0  0  0  0  0
    2.5886    3.1646    0.0000 C   0  0  0  0  0  0  0  0  0  0  0  0
    2.6931    2.1701    0.0000 O   0  0  0  0  0  0  0  0  0  0  0  0
    1.8841    1.5823    0.0000 C   0  0  0  0  0  0  0  0  0  0  0  0
    1.9886    0.5878    0.0000 C   0  0  0  0  0  0  0  0  0  0  0  0
    2.9022    0.1810    0.0000 O   0  0  0  0  0  0  0  0  0  0  0  0
    1.1796    0.0000    0.0000 O   0  5  0  0  0  0  0  0  0  0  0  0
    3.3317    3.8337    0.0000 C   0  0  0  0  0  0  0  0  0  0  0  0
    4.3099    3.6258    0.0000 Br  0  0  0  0  0  0  0  0  0  0  0  0
  1  2  1  0  0  0  0
  2  3  1  0  0  0  0
  3  4  2  0  0  0  0
  3  5  1  0  0  0  0
  5  6  1  0  0  0  0
  6  7  2  0  0  0  0
  7  8  1  0  0  0  0
  8  9  2  0  0  0  0
  9 10  1  0  0  0  0
 10 11  2  0  0  0  0
 11  6  1  0  0  0  0
 10 12  1  0  0  0  0
 12 13  1  0  0  0  0
 13 14  1  0  0  0  0
 14 15  1  0  0  0  0
 15 16  2  0  0  0  0
 15 17  1  0  0  0  0
 14 18  2  0  0  0  0
 18 19  1  0  0  0  0
 19 20  1  0  0  0  0
 20 21  1  0  0  0  0
 21 22  2  0  0  0  0
 21 23  1  0  0  0  0
 18 24  1  0  0  0  0
 24 12  2  0  0  0  0
 24 25  1  0  0  0  0
M  CHG  2  17  -1  23  -1
M  END
> <ID>
L19

> <FEP+ dG (kcal/mol)>
-7.99

> <Experimental dG (kcal/mol)>
-7.75

> <System Name>
PTP1B

> <Similarity to L01 Reference (FCFP_4)>
0.622951

> <SMILES>
COC(=O)Nc1cccc(c1)c2sc(C(=O)[O-])c(OCC(=O)[O-])c2Br

> <Net Charge of Ligand in FEP/MELD>
-2

$$$$

  Mt7.00  01062308342D

 29 31  0  0  0  0  0  0  0  0999 V2000
    9.9659    6.5935    0.0000 O   0  0  0  0  0  0  0  0  0  0  0  0
    9.0523    7.0002    0.0000 C   0  0  0  0  0  0  0  0  0  0  0  0
    8.9478    7.9947    0.0000 O   0  5  0  0  0  0  0  0  0  0  0  0
    8.2433    6.4124    0.0000 C   0  0  0  0  0  0  0  0  0  0  0  0
    8.3479    5.4179    0.0000 O   0  0  0  0  0  0  0  0  0  0  0  0
    7.5388    4.8301    0.0000 C   0  0  0  0  0  0  0  0  0  0  0  0
    6.5878    5.1391    0.0000 C   0  0  0  0  0  0  0  0  0  0  0  0
    6.2788    6.0902    0.0000 Br  0  0  0  0  0  0  0  0  0  0  0  0
    6.0000    4.3301    0.0000 C   0  0  0  0  0  0  0  0  0  0  0  0
    6.5878    3.5211    0.0000 S   0  0  0  0  0  0  0  0  0  0  0  0
    7.5388    3.8301    0.0000 C   0  0  0  0  0  0  0  0  0  0  0  0
    8.3479    3.2423    0.0000 C   0  0  0  0  0  0  0  0  0  0  0  0
    9.2614    3.6491    0.0000 O   0  0  0  0  0  0  0  0  0  0  0  0
    8.2433    2.2478    0.0000 O   0  5  0  0  0  0  0  0  0  0  0  0
    5.0000    4.3301    0.0000 C   0  0  0  0  0  0  0  0  0  0  0  0
    4.5000    5.1962    0.0000 C   0  0  0  0  0  0  0  0  0  0  0  0
    3.5000    5.1962    0.0000 C   0  0  0  0  0  0  0  0  0  0  0  0
    3.0000    4.3301    0.0000 C   0  0  0  0  0  0  0  0  0  0  0  0
    3.5000    3.4641    0.0000 C   0  0  0  0  0  0  0  0  0  0  0  0
    4.5000    3.4641    0.0000 C   0  0  0  0  0  0  0  0  0  0  0  0
    3.0000    2.5981    0.0000 N   0  0  0  0  0  0  0  0  0  0  0  0
    2.0000    2.5981    0.0000 C   0  0  0  0  0  0  0  0  0  0  0  0
    1.5000    3.4641    0.0000 O   0  0  0  0  0  0  0  0  0  0  0  0
    1.5000    1.7321    0.0000 C   0  0  0  0  0  0  0  0  0  0  0  0
    0.5000    1.7321    0.0000 C   0  0  0  0  0  0  0  0  0  0  0  0
    0.0000    0.8660    0.0000 C   0  0  0  0  0  0  0  0  0  0  0  0
    0.5000    0.0000    0.0000 C   0  0  0  0  0  0  0  0  0  0  0  0
    1.5000    0.0000    0.0000 C   0  0  0  0  0  0  0  0  0  0  0  0
    2.0000    0.8660    0.0000 C   0  0  0  0  0  0  0  0  0  0  0  0
  1  2  2  0  0  0  0
  2  3  1  0  0  0  0
  2  4  1  0  0  0  0
  4  5  1  0  0  0  0
  5  6  1  0  0  0  0
  6  7  1  0  0  0  0
  7  8  1  0  0  0  0
  7  9  2  0  0  0  0
  9 10  1  0  0  0  0
 10 11  1  0  0  0  0
 11  6  2  0  0  0  0
 11 12  1  0  0  0  0
 12 13  2  0  0  0  0
 12 14  1  0  0  0  0
  9 15  1  0  0  0  0
 15 16  2  0  0  0  0
 16 17  1  0  0  0  0
 17 18  2  0  0  0  0
 18 19  1  0  0  0  0
 19 20  2  0  0  0  0
 20 15  1  0  0  0  0
 19 21  1  0  0  0  0
 21 22  1  0  0  0  0
 22 23  2  0  0  0  0
 22 24  1  0  0  0  0
 24 25  2  0  0  0  0
 25 26  1  0  0  0  0
 26 27  2  0  0  0  0
 27 28  1  0  0  0  0
 28 29  2  0  0  0  0
 29 24  1  0  0  0  0
M  CHG  2   3  -1  14  -1
M  END
> <ID>
L20

> <FEP+ dG (kcal/mol)>
-7.22

> <Experimental dG (kcal/mol)>
-7.72

> <System Name>
PTP1B

> <Similarity to L01 Reference (FCFP_4)>
0.677966

> <SMILES>
O=C([O-])COc1c(Br)c(sc1C(=O)[O-])c2cccc(c2)NC(=O)c3ccccc3

> <Net Charge of Ligand in FEP/MELD>
-2

$$$$

  Mt7.00  01062308342D

 25 26  0  0  0  0  0  0  0  0999 V2000
    7.9250    8.2114    0.0000 C   0  0  0  0  0  0  0  0  0  0  0  0
    7.4250    7.3454    0.0000 C   0  0  0  0  0  0  0  0  0  0  0  0
    6.4250    7.3454    0.0000 C   0  0  0  0  0  0  0  0  0  0  0  0
    5.9250    8.2114    0.0000 O   0  0  0  0  0  0  0  0  0  0  0  0
    5.9250    6.4793    0.0000 N   0  0  0  0  0  0  0  0  0  0  0  0
    4.9250    6.4793    0.0000 C   0  0  0  0  0  0  0  0  0  0  0  0
    4.4250    7.3454    0.0000 C   0  0  0  0  0  0  0  0  0  0  0  0
    3.4250    7.3454    0.0000 C   0  0  0  0  0  0  0  0  0  0  0  0
    2.9250    6.4793    0.0000 C   0  0  0  0  0  0  0  0  0  0  0  0
    3.4250    5.6133    0.0000 C   0  0  0  0  0  0  0  0  0  0  0  0
    4.4250    5.6133    0.0000 C   0  0  0  0  0  0  0  0  0  0  0  0
    2.9250    4.7473    0.0000 C   0  0  0  0  0  0  0  0  0  0  0  0
    1.9305    4.6428    0.0000 S   0  0  0  0  0  0  0  0  0  0  0  0
    1.7226    3.6646    0.0000 C   0  0  0  0  0  0  0  0  0  0  0  0
    0.8090    3.2579    0.0000 C   0  0  0  0  0  0  0  0  0  0  0  0
    0.7045    2.2634    0.0000 O   0  0  0  0  0  0  0  0  0  0  0  0
    0.0000    3.8457    0.0000 O   0  5  0  0  0  0  0  0  0  0  0  0
    2.5886    3.1646    0.0000 C   0  0  0  0  0  0  0  0  0  0  0  0
    2.6931    2.1701    0.0000 O   0  0  0  0  0  0  0  0  0  0  0  0
    1.8841    1.5823    0.0000 C   0  0  0  0  0  0  0  0  0  0  0  0
    1.9886    0.5878    0.0000 C   0  0  0  0  0  0  0  0  0  0  0  0
    2.9022    0.1810    0.0000 O   0  0  0  0  0  0  0  0  0  0  0  0
    1.1796    0.0000    0.0000 O   0  5  0  0  0  0  0  0  0  0  0  0
    3.3317    3.8337    0.0000 C   0  0  0  0  0  0  0  0  0  0  0  0
    4.3099    3.6258    0.0000 Br  0  0  0  0  0  0  0  0  0  0  0  0
  1  2  1  0  0  0  0
  2  3  1  0  0  0  0
  3  4  2  0  0  0  0
  3  5  1  0  0  0  0
  5  6  1  0  0  0  0
  6  7  2  0  0  0  0
  7  8  1  0  0  0  0
  8  9  2  0  0  0  0
  9 10  1  0  0  0  0
 10 11  2  0  0  0  0
 11  6  1  0  0  0  0
 10 12  1  0  0  0  0
 12 13  1  0  0  0  0
 13 14  1  0  0  0  0
 14 15  1  0  0  0  0
 15 16  2  0  0  0  0
 15 17  1  0  0  0  0
 14 18  2  0  0  0  0
 18 19  1  0  0  0  0
 19 20  1  0  0  0  0
 20 21  1  0  0  0  0
 21 22  2  0  0  0  0
 21 23  1  0  0  0  0
 18 24  1  0  0  0  0
 24 12  2  0  0  0  0
 24 25  1  0  0  0  0
M  CHG  2  17  -1  23  -1
M  END
> <ID>
L21

> <FEP+ dG (kcal/mol)>
-7.11

> <Experimental dG (kcal/mol)>
-7.75

> <System Name>
PTP1B

> <Similarity to L01 Reference (FCFP_4)>
0.65

> <SMILES>
CCC(=O)Nc1cccc(c1)c2sc(C(=O)[O-])c(OCC(=O)[O-])c2Br

> <Net Charge of Ligand in FEP/MELD>
-2

$$$$

  Mt7.00  01062308342D

 21 22  0  0  0  0  0  0  0  0999 V2000
    5.9250    6.4793    0.0000 N   0  0  0  0  0  0  0  0  0  0  0  0
    4.9250    6.4793    0.0000 C   0  0  0  0  0  0  0  0  0  0  0  0
    4.4250    7.3454    0.0000 C   0  0  0  0  0  0  0  0  0  0  0  0
    3.4250    7.3454    0.0000 C   0  0  0  0  0  0  0  0  0  0  0  0
    2.9250    6.4793    0.0000 C   0  0  0  0  0  0  0  0  0  0  0  0
    3.4250    5.6133    0.0000 C   0  0  0  0  0  0  0  0  0  0  0  0
    4.4250    5.6133    0.0000 C   0  0  0  0  0  0  0  0  0  0  0  0
    2.9250    4.7473    0.0000 C   0  0  0  0  0  0  0  0  0  0  0  0
    1.9305    4.6428    0.0000 S   0  0  0  0  0  0  0  0  0  0  0  0
    1.7226    3.6646    0.0000 C   0  0  0  0  0  0  0  0  0  0  0  0
    0.8090    3.2579    0.0000 C   0  0  0  0  0  0  0  0  0  0  0  0
    0.7045    2.2634    0.0000 O   0  0  0  0  0  0  0  0  0  0  0  0
    0.0000    3.8457    0.0000 O   0  5  0  0  0  0  0  0  0  0  0  0
    2.5886    3.1646    0.0000 C   0  0  0  0  0  0  0  0  0  0  0  0
    2.6931    2.1701    0.0000 O   0  0  0  0  0  0  0  0  0  0  0  0
    1.8841    1.5823    0.0000 C   0  0  0  0  0  0  0  0  0  0  0  0
    1.9886    0.5878    0.0000 C   0  0  0  0  0  0  0  0  0  0  0  0
    2.9022    0.1810    0.0000 O   0  0  0  0  0  0  0  0  0  0  0  0
    1.1796    0.0000    0.0000 O   0  5  0  0  0  0  0  0  0  0  0  0
    3.3317    3.8337    0.0000 C   0  0  0  0  0  0  0  0  0  0  0  0
    4.3099    3.6258    0.0000 Br  0  0  0  0  0  0  0  0  0  0  0  0
  1  2  1  0  0  0  0
  2  3  2  0  0  0  0
  3  4  1  0  0  0  0
  4  5  2  0  0  0  0
  5  6  1  0  0  0  0
  6  7  2  0  0  0  0
  7  2  1  0  0  0  0
  6  8  1  0  0  0  0
  8  9  1  0  0  0  0
  9 10  1  0  0  0  0
 10 11  1  0  0  0  0
 11 12  2  0  0  0  0
 11 13  1  0  0  0  0
 10 14  2  0  0  0  0
 14 15  1  0  0  0  0
 15 16  1  0  0  0  0
 16 17  1  0  0  0  0
 17 18  2  0  0  0  0
 17 19  1  0  0  0  0
 14 20  1  0  0  0  0
 20  8  2  0  0  0  0
 20 21  1  0  0  0  0
M  CHG  2  13  -1  19  -1
M  END
> <ID>
L22

> <FEP+ dG (kcal/mol)>
-7.06

> <Experimental dG (kcal/mol)>
-7.85

> <System Name>
PTP1B

> <Similarity to L01 Reference (FCFP_4)>
0.631579

> <SMILES>
Nc1cccc(c1)c2sc(C(=O)[O-])c(OCC(=O)[O-])c2Br

> <Net Charge of Ligand in FEP/MELD>
-2

$$$$

  Mt7.00  01062308342D

 22 23  0  0  0  0  0  0  0  0999 V2000
    6.4250    7.3454    0.0000 C   0  0  0  0  0  0  0  0  0  0  0  0
    5.9250    6.4793    0.0000 O   0  0  0  0  0  0  0  0  0  0  0  0
    4.9250    6.4793    0.0000 C   0  0  0  0  0  0  0  0  0  0  0  0
    4.4250    7.3454    0.0000 C   0  0  0  0  0  0  0  0  0  0  0  0
    3.4250    7.3454    0.0000 C   0  0  0  0  0  0  0  0  0  0  0  0
    2.9250    6.4793    0.0000 C   0  0  0  0  0  0  0  0  0  0  0  0
    3.4250    5.6133    0.0000 C   0  0  0  0  0  0  0  0  0  0  0  0
    4.4250    5.6133    0.0000 C   0  0  0  0  0  0  0  0  0  0  0  0
    2.9250    4.7473    0.0000 C   0  0  0  0  0  0  0  0  0  0  0  0
    1.9305    4.6428    0.0000 S   0  0  0  0  0  0  0  0  0  0  0  0
    1.7226    3.6646    0.0000 C   0  0  0  0  0  0  0  0  0  0  0  0
    0.8090    3.2579    0.0000 C   0  0  0  0  0  0  0  0  0  0  0  0
    0.7045    2.2634    0.0000 O   0  0  0  0  0  0  0  0  0  0  0  0
    0.0000    3.8457    0.0000 O   0  5  0  0  0  0  0  0  0  0  0  0
    2.5886    3.1646    0.0000 C   0  0  0  0  0  0  0  0  0  0  0  0
    2.6931    2.1701    0.0000 O   0  0  0  0  0  0  0  0  0  0  0  0
    1.8841    1.5823    0.0000 C   0  0  0  0  0  0  0  0  0  0  0  0
    1.9886    0.5878    0.0000 C   0  0  0  0  0  0  0  0  0  0  0  0
    2.9022    0.1810    0.0000 O   0  0  0  0  0  0  0  0  0  0  0  0
    1.1796    0.0000    0.0000 O   0  5  0  0  0  0  0  0  0  0  0  0
    3.3317    3.8337    0.0000 C   0  0  0  0  0  0  0  0  0  0  0  0
    4.3099    3.6258    0.0000 Br  0  0  0  0  0  0  0  0  0  0  0  0
  1  2  1  0  0  0  0
  2  3  1  0  0  0  0
  3  4  2  0  0  0  0
  4  5  1  0  0  0  0
  5  6  2  0  0  0  0
  6  7  1  0  0  0  0
  7  8  2  0  0  0  0
  8  3  1  0  0  0  0
  7  9  1  0  0  0  0
  9 10  1  0  0  0  0
 10 11  1  0  0  0  0
 11 12  1  0  0  0  0
 12 13  2  0  0  0  0
 12 14  1  0  0  0  0
 11 15  2  0  0  0  0
 15 16  1  0  0  0  0
 16 17  1  0  0  0  0
 17 18  1  0  0  0  0
 18 19  2  0  0  0  0
 18 20  1  0  0  0  0
 15 21  1  0  0  0  0
 21  9  2  0  0  0  0
 21 22  1  0  0  0  0
M  CHG  2  14  -1  20  -1
M  END
> <ID>
L23

> <FEP+ dG (kcal/mol)>
-6.67

> <Experimental dG (kcal/mol)>
-7.34

> <System Name>
PTP1B

> <Similarity to L01 Reference (FCFP_4)>
0.533333

> <SMILES>
COc1cccc(c1)c2sc(C(=O)[O-])c(OCC(=O)[O-])c2Br

> <Net Charge of Ligand in FEP/MELD>
-2

$$$$

  Mt7.00  01062308342D

 24 26  0  0  1  0  0  0  0  0999 V2000
    5.3660    2.7321    0.0000 O   0  0  0  0  0  0  0  0  0  0  0  0
    5.8660    3.5981    0.0000 C   0  0  0  0  0  0  0  0  0  0  0  0
    5.3660    4.4641    0.0000 N   0  0  0  0  0  0  0  0  0  0  0  0
    4.3660    4.4641    0.0000 C   0  0  0  0  0  0  0  0  0  0  0  0
    3.8660    5.3301    0.0000 C   0  0  0  0  0  0  0  0  0  0  0  0
    2.8660    5.3301    0.0000 C   0  0  0  0  0  0  0  0  0  0  0  0
    2.3660    4.4641    0.0000 N   0  0  0  0  0  0  0  0  0  0  0  0
    2.8660    3.5981    0.0000 C   0  0  0  0  0  0  0  0  0  0  0  0
    3.8660    3.5981    0.0000 C   0  0  0  0  0  0  0  0  0  0  0  0
    2.3660    2.7321    0.0000 N   0  0  0  0  0  0  0  0  0  0  0  0
    1.3660    2.7321    0.0000 C   0  0  0  0  0  0  0  0  0  0  0  0
    0.8660    3.5981    0.0000 O   0  0  0  0  0  0  0  0  0  0  0  0
    0.8660    1.8660    0.0000 C   0  0  3  0  0  0  0  0  0  0  0  0
    0.0000    1.3660    0.0000 C   0  0  0  0  0  0  0  0  0  0  0  0
    0.8660    0.8660    0.0000 C   0  0  3  0  0  0  0  0  0  0  0  0
    1.3660    0.0000    0.0000 F   0  0  0  0  0  0  0  0  0  0  0  0
    6.8660    3.5981    0.0000 C   0  0  0  0  0  0  0  0  0  0  0  0
    7.3660    2.7321    0.0000 C   0  0  0  0  0  0  0  0  0  0  0  0
    6.8660    1.8660    0.0000 Cl  0  0  0  0  0  0  0  0  0  0  0  0
    8.3660    2.7321    0.0000 C   0  0  0  0  0  0  0  0  0  0  0  0
    8.8660    3.5981    0.0000 C   0  0  0  0  0  0  0  0  0  0  0  0
    8.3660    4.4641    0.0000 C   0  0  0  0  0  0  0  0  0  0  0  0
    7.3660    4.4641    0.0000 C   0  0  0  0  0  0  0  0  0  0  0  0
    6.8660    5.3301    0.0000 Cl  0  0  0  0  0  0  0  0  0  0  0  0
  1  2  2  0  0  0  0
  2  3  1  0  0  0  0
  3  4  1  0  0  0  0
  4  5  2  0  0  0  0
  5  6  1  0  0  0  0
  6  7  2  0  0  0  0
  7  8  1  0  0  0  0
  8  9  2  0  0  0  0
  9  4  1  0  0  0  0
  8 10  1  0  0  0  0
 10 11  1  0  0  0  0
 11 12  2  0  0  0  0
 13 11  1  6  0  0  0
 13 14  1  0  0  0  0
 14 15  1  0  0  0  0
 15 13  1  0  0  0  0
 15 16  1  6  0  0  0
  2 17  1  0  0  0  0
 17 18  2  0  0  0  0
 18 19  1  0  0  0  0
 18 20  1  0  0  0  0
 20 21  2  0  0  0  0
 21 22  1  0  0  0  0
 22 23  2  0  0  0  0
 23 17  1  0  0  0  0
 23 24  1  0  0  0  0
M  END
> <ID>
L01

> <FEP+ dG (kcal/mol)>
-11.29

> <Experimental dG (kcal/mol)>
-11.7

> <System Name>
Tyk2

> <Similarity to L01 Reference (FCFP_4)>
1

> <SMILES>
O=C(Nc1ccnc(c1)NC(=O)[C@H]2C[C@H]2F)c3c(Cl)cccc3Cl

> <Net Charge of Ligand in FEP/MELD>
0

$$$$

  Mt7.00  01062308342D

 24 26  0  0  1  0  0  0  0  0999 V2000
    5.3660    2.7321    0.0000 O   0  0  0  0  0  0  0  0  0  0  0  0
    5.8660    3.5981    0.0000 C   0  0  0  0  0  0  0  0  0  0  0  0
    5.3660    4.4641    0.0000 N   0  0  0  0  0  0  0  0  0  0  0  0
    4.3660    4.4641    0.0000 C   0  0  0  0  0  0  0  0  0  0  0  0
    3.8660    5.3301    0.0000 C   0  0  0  0  0  0  0  0  0  0  0  0
    2.8660    5.3301    0.0000 C   0  0  0  0  0  0  0  0  0  0  0  0
    2.3660    4.4641    0.0000 N   0  0  0  0  0  0  0  0  0  0  0  0
    2.8660    3.5981    0.0000 C   0  0  0  0  0  0  0  0  0  0  0  0
    3.8660    3.5981    0.0000 C   0  0  0  0  0  0  0  0  0  0  0  0
    2.3660    2.7321    0.0000 N   0  0  0  0  0  0  0  0  0  0  0  0
    1.3660    2.7321    0.0000 C   0  0  0  0  0  0  0  0  0  0  0  0
    0.8660    3.5981    0.0000 O   0  0  0  0  0  0  0  0  0  0  0  0
    0.8660    1.8660    0.0000 C   0  0  3  0  0  0  0  0  0  0  0  0
    0.0000    1.3660    0.0000 C   0  0  0  0  0  0  0  0  0  0  0  0
    0.8660    0.8660    0.0000 C   0  0  3  0  0  0  0  0  0  0  0  0
    1.3660    0.0000    0.0000 Cl  0  0  0  0  0  0  0  0  0  0  0  0
    6.8660    3.5981    0.0000 C   0  0  0  0  0  0  0  0  0  0  0  0
    7.3660    2.7321    0.0000 C   0  0  0  0  0  0  0  0  0  0  0  0
    6.8660    1.8660    0.0000 Cl  0  0  0  0  0  0  0  0  0  0  0  0
    8.3660    2.7321    0.0000 C   0  0  0  0  0  0  0  0  0  0  0  0
    8.8660    3.5981    0.0000 C   0  0  0  0  0  0  0  0  0  0  0  0
    8.3660    4.4641    0.0000 C   0  0  0  0  0  0  0  0  0  0  0  0
    7.3660    4.4641    0.0000 C   0  0  0  0  0  0  0  0  0  0  0  0
    6.8660    5.3301    0.0000 Cl  0  0  0  0  0  0  0  0  0  0  0  0
  1  2  2  0  0  0  0
  2  3  1  0  0  0  0
  3  4  1  0  0  0  0
  4  5  2  0  0  0  0
  5  6  1  0  0  0  0
  6  7  2  0  0  0  0
  7  8  1  0  0  0  0
  8  9  2  0  0  0  0
  9  4  1  0  0  0  0
  8 10  1  0  0  0  0
 10 11  1  0  0  0  0
 11 12  2  0  0  0  0
 13 11  1  6  0  0  0
 13 14  1  0  0  0  0
 14 15  1  0  0  0  0
 15 13  1  0  0  0  0
 15 16  1  6  0  0  0
  2 17  1  0  0  0  0
 17 18  2  0  0  0  0
 18 19  1  0  0  0  0
 18 20  1  0  0  0  0
 20 21  2  0  0  0  0
 21 22  1  0  0  0  0
 22 23  2  0  0  0  0
 23 17  1  0  0  0  0
 23 24  1  0  0  0  0
M  END
> <ID>
L02

> <FEP+ dG (kcal/mol)>
-11

> <Experimental dG (kcal/mol)>
-11.28

> <System Name>
Tyk2

> <Similarity to L01 Reference (FCFP_4)>
1

> <SMILES>
O=C(Nc1ccnc(c1)NC(=O)[C@H]2C[C@H]2Cl)c3c(Cl)cccc3Cl

> <Net Charge of Ligand in FEP/MELD>
0

$$$$

  Mt7.00  01062308342D

 25 27  0  0  1  0  0  0  0  0999 V2000
    7.8660    0.0000    0.0000 N   0  0  0  0  0  0  0  0  0  0  0  0
    7.3660    0.8660    0.0000 C   0  0  0  0  0  0  0  0  0  0  0  0
    6.8660    1.7321    0.0000 C   0  0  3  0  0  0  0  0  0  0  0  0
    6.8660    2.7321    0.0000 C   0  0  0  0  0  0  0  0  0  0  0  0
    6.0000    2.2321    0.0000 C   0  0  3  0  0  0  0  0  0  0  0  0
    5.0000    2.2321    0.0000 C   0  0  0  0  0  0  0  0  0  0  0  0
    4.5000    1.3660    0.0000 O   0  0  0  0  0  0  0  0  0  0  0  0
    4.5000    3.0981    0.0000 N   0  0  0  0  0  0  0  0  0  0  0  0
    3.5000    3.0981    0.0000 C   0  0  0  0  0  0  0  0  0  0  0  0
    3.0000    3.9641    0.0000 C   0  0  0  0  0  0  0  0  0  0  0  0
    2.0000    3.9641    0.0000 C   0  0  0  0  0  0  0  0  0  0  0  0
    1.5000    3.0981    0.0000 C   0  0  0  0  0  0  0  0  0  0  0  0
    2.0000    2.2321    0.0000 C   0  0  0  0  0  0  0  0  0  0  0  0
    3.0000    2.2321    0.0000 N   0  0  0  0  0  0  0  0  0  0  0  0
    1.5000    4.8301    0.0000 N   0  0  0  0  0  0  0  0  0  0  0  0
    2.0000    5.6962    0.0000 C   0  0  0  0  0  0  0  0  0  0  0  0
    3.0000    5.6962    0.0000 O   0  0  0  0  0  0  0  0  0  0  0  0
    1.5000    6.5622    0.0000 C   0  0  0  0  0  0  0  0  0  0  0  0
    2.0000    7.4282    0.0000 C   0  0  0  0  0  0  0  0  0  0  0  0
    3.0000    7.4282    0.0000 Cl  0  0  0  0  0  0  0  0  0  0  0  0
    1.5000    8.2942    0.0000 C   0  0  0  0  0  0  0  0  0  0  0  0
    0.5000    8.2942    0.0000 C   0  0  0  0  0  0  0  0  0  0  0  0
    0.0000    7.4282    0.0000 C   0  0  0  0  0  0  0  0  0  0  0  0
    0.5000    6.5622    0.0000 C   0  0  0  0  0  0  0  0  0  0  0  0
    0.0000    5.6962    0.0000 Cl  0  0  0  0  0  0  0  0  0  0  0  0
  1  2  3  0  0  0  0
  3  2  1  1  0  0  0
  3  4  1  0  0  0  0
  4  5  1  0  0  0  0
  5  3  1  0  0  0  0
  5  6  1  1  0  0  0
  6  7  2  0  0  0  0
  6  8  1  0  0  0  0
  8  9  1  0  0  0  0
  9 10  2  0  0  0  0
 10 11  1  0  0  0  0
 11 12  2  0  0  0  0
 12 13  1  0  0  0  0
 13 14  2  0  0  0  0
 14  9  1  0  0  0  0
 11 15  1  0  0  0  0
 15 16  1  0  0  0  0
 16 17  2  0  0  0  0
 16 18  1  0  0  0  0
 18 19  2  0  0  0  0
 19 20  1  0  0  0  0
 19 21  1  0  0  0  0
 21 22  2  0  0  0  0
 22 23  1  0  0  0  0
 23 24  2  0  0  0  0
 24 18  1  0  0  0  0
 24 25  1  0  0  0  0
M  END
> <ID>
L03

> <FEP+ dG (kcal/mol)>
-10.78

> <Experimental dG (kcal/mol)>
-10.94

> <System Name>
Tyk2

> <Similarity to L01 Reference (FCFP_4)>
0.755556

> <SMILES>
N#C[C@@H]1C[C@@H]1C(=O)Nc2cc(ccn2)NC(=O)c3c(Cl)cccc3Cl

> <Net Charge of Ligand in FEP/MELD>
0

$$$$

  Mt7.00  01062308342D

 23 24  0  0  0  0  0  0  0  0999 V2000
    7.5000    0.0000    0.0000 C   0  0  0  0  0  0  0  0  0  0  0  0
    6.5000    0.0000    0.0000 C   0  0  0  0  0  0  0  0  0  0  0  0
    6.0000    0.8660    0.0000 N   0  0  0  0  0  0  0  0  0  0  0  0
    5.0000    0.8660    0.0000 C   0  0  0  0  0  0  0  0  0  0  0  0
    4.5000    0.0000    0.0000 O   0  0  0  0  0  0  0  0  0  0  0  0
    4.5000    1.7321    0.0000 N   0  0  0  0  0  0  0  0  0  0  0  0
    3.5000    1.7321    0.0000 C   0  0  0  0  0  0  0  0  0  0  0  0
    3.0000    2.5981    0.0000 C   0  0  0  0  0  0  0  0  0  0  0  0
    2.0000    2.5981    0.0000 C   0  0  0  0  0  0  0  0  0  0  0  0
    1.5000    1.7321    0.0000 C   0  0  0  0  0  0  0  0  0  0  0  0
    2.0000    0.8660    0.0000 C   0  0  0  0  0  0  0  0  0  0  0  0
    3.0000    0.8660    0.0000 N   0  0  0  0  0  0  0  0  0  0  0  0
    1.5000    3.4641    0.0000 N   0  0  0  0  0  0  0  0  0  0  0  0
    2.0000    4.3301    0.0000 C   0  0  0  0  0  0  0  0  0  0  0  0
    3.0000    4.3301    0.0000 O   0  0  0  0  0  0  0  0  0  0  0  0
    1.5000    5.1962    0.0000 C   0  0  0  0  0  0  0  0  0  0  0  0
    2.0000    6.0622    0.0000 C   0  0  0  0  0  0  0  0  0  0  0  0
    3.0000    6.0622    0.0000 Cl  0  0  0  0  0  0  0  0  0  0  0  0
    1.5000    6.9282    0.0000 C   0  0  0  0  0  0  0  0  0  0  0  0
    0.5000    6.9282    0.0000 C   0  0  0  0  0  0  0  0  0  0  0  0
    0.0000    6.0622    0.0000 C   0  0  0  0  0  0  0  0  0  0  0  0
    0.5000    5.1962    0.0000 C   0  0  0  0  0  0  0  0  0  0  0  0
    0.0000    4.3301    0.0000 Cl  0  0  0  0  0  0  0  0  0  0  0  0
  1  2  1  0  0  0  0
  2  3  1  0  0  0  0
  3  4  1  0  0  0  0
  4  5  2  0  0  0  0
  4  6  1  0  0  0  0
  6  7  1  0  0  0  0
  7  8  2  0  0  0  0
  8  9  1  0  0  0  0
  9 10  2  0  0  0  0
 10 11  1  0  0  0  0
 11 12  2  0  0  0  0
 12  7  1  0  0  0  0
  9 13  1  0  0  0  0
 13 14  1  0  0  0  0
 14 15  2  0  0  0  0
 14 16  1  0  0  0  0
 16 17  2  0  0  0  0
 17 18  1  0  0  0  0
 17 19  1  0  0  0  0
 19 20  2  0  0  0  0
 20 21  1  0  0  0  0
 21 22  2  0  0  0  0
 22 16  1  0  0  0  0
 22 23  1  0  0  0  0
M  END
> <ID>
L04

> <FEP+ dG (kcal/mol)>
-10.74

> <Experimental dG (kcal/mol)>
-10.53

> <System Name>
Tyk2

> <Similarity to L01 Reference (FCFP_4)>
0.630435

> <SMILES>
CCNC(=O)Nc1cc(ccn1)NC(=O)c2c(Cl)cccc2Cl

> <Net Charge of Ligand in FEP/MELD>
0

$$$$

  Mt7.00  01062308342D

 23 25  0  0  0  0  0  0  0  0999 V2000
    5.3660    1.8660    0.0000 O   0  0  0  0  0  0  0  0  0  0  0  0
    5.8660    2.7321    0.0000 C   0  0  0  0  0  0  0  0  0  0  0  0
    5.3660    3.5981    0.0000 N   0  0  0  0  0  0  0  0  0  0  0  0
    4.3660    3.5981    0.0000 C   0  0  0  0  0  0  0  0  0  0  0  0
    3.8660    4.4641    0.0000 C   0  0  0  0  0  0  0  0  0  0  0  0
    2.8660    4.4641    0.0000 C   0  0  0  0  0  0  0  0  0  0  0  0
    2.3660    3.5981    0.0000 N   0  0  0  0  0  0  0  0  0  0  0  0
    2.8660    2.7321    0.0000 C   0  0  0  0  0  0  0  0  0  0  0  0
    3.8660    2.7321    0.0000 C   0  0  0  0  0  0  0  0  0  0  0  0
    2.3660    1.8660    0.0000 N   0  0  0  0  0  0  0  0  0  0  0  0
    1.3660    1.8660    0.0000 C   0  0  0  0  0  0  0  0  0  0  0  0
    0.8660    2.7321    0.0000 O   0  0  0  0  0  0  0  0  0  0  0  0
    0.8660    1.0000    0.0000 C   0  0  0  0  0  0  0  0  0  0  0  0
    0.0000    0.5000    0.0000 C   0  0  0  0  0  0  0  0  0  0  0  0
    0.8660    0.0000    0.0000 C   0  0  0  0  0  0  0  0  0  0  0  0
    6.8660    2.7321    0.0000 C   0  0  0  0  0  0  0  0  0  0  0  0
    7.3660    1.8660    0.0000 C   0  0  0  0  0  0  0  0  0  0  0  0
    6.8660    1.0000    0.0000 Cl  0  0  0  0  0  0  0  0  0  0  0  0
    8.3660    1.8660    0.0000 C   0  0  0  0  0  0  0  0  0  0  0  0
    8.8660    2.7321    0.0000 C   0  0  0  0  0  0  0  0  0  0  0  0
    8.3660    3.5981    0.0000 C   0  0  0  0  0  0  0  0  0  0  0  0
    7.3660    3.5981    0.0000 C   0  0  0  0  0  0  0  0  0  0  0  0
    6.8660    4.4641    0.0000 Cl  0  0  0  0  0  0  0  0  0  0  0  0
  1  2  2  0  0  0  0
  2  3  1  0  0  0  0
  3  4  1  0  0  0  0
  4  5  2  0  0  0  0
  5  6  1  0  0  0  0
  6  7  2  0  0  0  0
  7  8  1  0  0  0  0
  8  9  2  0  0  0  0
  9  4  1  0  0  0  0
  8 10  1  0  0  0  0
 10 11  1  0  0  0  0
 11 12  2  0  0  0  0
 11 13  1  0  0  0  0
 13 14  1  0  0  0  0
 14 15  1  0  0  0  0
 15 13  1  0  0  0  0
  2 16  1  0  0  0  0
 16 17  2  0  0  0  0
 17 18  1  0  0  0  0
 17 19  1  0  0  0  0
 19 20  2  0  0  0  0
 20 21  1  0  0  0  0
 21 22  2  0  0  0  0
 22 16  1  0  0  0  0
 22 23  1  0  0  0  0
M  END
> <ID>
L05

> <FEP+ dG (kcal/mol)>
-10.63

> <Experimental dG (kcal/mol)>
-11.31

> <System Name>
Tyk2

> <Similarity to L01 Reference (FCFP_4)>
0.85

> <SMILES>
O=C(Nc1ccnc(c1)NC(=O)C2CC2)c3c(Cl)cccc3Cl

> <Net Charge of Ligand in FEP/MELD>
0

$$$$

  Mt7.00  01062308342D

 22 23  0  0  0  0  0  0  0  0999 V2000
    6.5000    2.5981    0.0000 C   0  0  0  0  0  0  0  0  0  0  0  0
    6.0000    1.7321    0.0000 O   0  0  0  0  0  0  0  0  0  0  0  0
    5.0000    1.7321    0.0000 C   0  0  0  0  0  0  0  0  0  0  0  0
    4.5000    2.5981    0.0000 O   0  0  0  0  0  0  0  0  0  0  0  0
    4.5000    0.8660    0.0000 N   0  0  0  0  0  0  0  0  0  0  0  0
    3.5000    0.8660    0.0000 C   0  0  0  0  0  0  0  0  0  0  0  0
    3.0000    1.7321    0.0000 C   0  0  0  0  0  0  0  0  0  0  0  0
    2.0000    1.7321    0.0000 C   0  0  0  0  0  0  0  0  0  0  0  0
    1.5000    0.8660    0.0000 C   0  0  0  0  0  0  0  0  0  0  0  0
    2.0000    0.0000    0.0000 C   0  0  0  0  0  0  0  0  0  0  0  0
    3.0000    0.0000    0.0000 N   0  0  0  0  0  0  0  0  0  0  0  0
    1.5000    2.5981    0.0000 N   0  0  0  0  0  0  0  0  0  0  0  0
    2.0000    3.4641    0.0000 C   0  0  0  0  0  0  0  0  0  0  0  0
    3.0000    3.4641    0.0000 O   0  0  0  0  0  0  0  0  0  0  0  0
    1.5000    4.3301    0.0000 C   0  0  0  0  0  0  0  0  0  0  0  0
    2.0000    5.1962    0.0000 C   0  0  0  0  0  0  0  0  0  0  0  0
    3.0000    5.1962    0.0000 Cl  0  0  0  0  0  0  0  0  0  0  0  0
    1.5000    6.0622    0.0000 C   0  0  0  0  0  0  0  0  0  0  0  0
    0.5000    6.0622    0.0000 C   0  0  0  0  0  0  0  0  0  0  0  0
    0.0000    5.1962    0.0000 C   0  0  0  0  0  0  0  0  0  0  0  0
    0.5000    4.3301    0.0000 C   0  0  0  0  0  0  0  0  0  0  0  0
    0.0000    3.4641    0.0000 Cl  0  0  0  0  0  0  0  0  0  0  0  0
  1  2  1  0  0  0  0
  2  3  1  0  0  0  0
  3  4  2  0  0  0  0
  3  5  1  0  0  0  0
  5  6  1  0  0  0  0
  6  7  2  0  0  0  0
  7  8  1  0  0  0  0
  8  9  2  0  0  0  0
  9 10  1  0  0  0  0
 10 11  2  0  0  0  0
 11  6  1  0  0  0  0
  8 12  1  0  0  0  0
 12 13  1  0  0  0  0
 13 14  2  0  0  0  0
 13 15  1  0  0  0  0
 15 16  2  0  0  0  0
 16 17  1  0  0  0  0
 16 18  1  0  0  0  0
 18 19  2  0  0  0  0
 19 20  1  0  0  0  0
 20 21  2  0  0  0  0
 21 15  1  0  0  0  0
 21 22  1  0  0  0  0
M  END
> <ID>
L06

> <FEP+ dG (kcal/mol)>
-10.61

> <Experimental dG (kcal/mol)>
-9.21

> <System Name>
Tyk2

> <Similarity to L01 Reference (FCFP_4)>
0.659091

> <SMILES>
COC(=O)Nc1cc(ccn1)NC(=O)c2c(Cl)cccc2Cl

> <Net Charge of Ligand in FEP/MELD>
0

$$$$

  Mt7.00  01062308342D

 24 26  0  0  1  0  0  0  0  0999 V2000
    7.3660    0.0000    0.0000 C   0  0  0  0  0  0  0  0  0  0  0  0
    6.8660    0.8660    0.0000 C   0  0  3  0  0  0  0  0  0  0  0  0
    6.8660    1.8660    0.0000 C   0  0  0  0  0  0  0  0  0  0  0  0
    6.0000    1.3660    0.0000 C   0  0  3  0  0  0  0  0  0  0  0  0
    5.0000    1.3660    0.0000 C   0  0  0  0  0  0  0  0  0  0  0  0
    4.5000    0.5000    0.0000 O   0  0  0  0  0  0  0  0  0  0  0  0
    4.5000    2.2321    0.0000 N   0  0  0  0  0  0  0  0  0  0  0  0
    3.5000    2.2321    0.0000 C   0  0  0  0  0  0  0  0  0  0  0  0
    3.0000    3.0981    0.0000 C   0  0  0  0  0  0  0  0  0  0  0  0
    2.0000    3.0981    0.0000 C   0  0  0  0  0  0  0  0  0  0  0  0
    1.5000    2.2321    0.0000 C   0  0  0  0  0  0  0  0  0  0  0  0
    2.0000    1.3660    0.0000 C   0  0  0  0  0  0  0  0  0  0  0  0
    3.0000    1.3660    0.0000 N   0  0  0  0  0  0  0  0  0  0  0  0
    1.5000    3.9641    0.0000 N   0  0  0  0  0  0  0  0  0  0  0  0
    2.0000    4.8301    0.0000 C   0  0  0  0  0  0  0  0  0  0  0  0
    3.0000    4.8301    0.0000 O   0  0  0  0  0  0  0  0  0  0  0  0
    1.5000    5.6962    0.0000 C   0  0  0  0  0  0  0  0  0  0  0  0
    2.0000    6.5622    0.0000 C   0  0  0  0  0  0  0  0  0  0  0  0
    3.0000    6.5622    0.0000 Cl  0  0  0  0  0  0  0  0  0  0  0  0
    1.5000    7.4282    0.0000 C   0  0  0  0  0  0  0  0  0  0  0  0
    0.5000    7.4282    0.0000 C   0  0  0  0  0  0  0  0  0  0  0  0
    0.0000    6.5622    0.0000 C   0  0  0  0  0  0  0  0  0  0  0  0
    0.5000    5.6962    0.0000 C   0  0  0  0  0  0  0  0  0  0  0  0
    0.0000    4.8301    0.0000 Cl  0  0  0  0  0  0  0  0  0  0  0  0
  2  1  1  1  0  0  0
  2  3  1  0  0  0  0
  3  4  1  0  0  0  0
  4  2  1  0  0  0  0
  4  5  1  1  0  0  0
  5  6  2  0  0  0  0
  5  7  1  0  0  0  0
  7  8  1  0  0  0  0
  8  9  2  0  0  0  0
  9 10  1  0  0  0  0
 10 11  2  0  0  0  0
 11 12  1  0  0  0  0
 12 13  2  0  0  0  0
 13  8  1  0  0  0  0
 10 14  1  0  0  0  0
 14 15  1  0  0  0  0
 15 16  2  0  0  0  0
 15 17  1  0  0  0  0
 17 18  2  0  0  0  0
 18 19  1  0  0  0  0
 18 20  1  0  0  0  0
 20 21  2  0  0  0  0
 21 22  1  0  0  0  0
 22 23  2  0  0  0  0
 23 17  1  0  0  0  0
 23 24  1  0  0  0  0
M  END
> <ID>
L07

> <FEP+ dG (kcal/mol)>
-10.3

> <Experimental dG (kcal/mol)>
-10.98

> <System Name>
Tyk2

> <Similarity to L01 Reference (FCFP_4)>
0.829268

> <SMILES>
C[C@@H]1C[C@@H]1C(=O)Nc2cc(ccn2)NC(=O)c3c(Cl)cccc3Cl

> <Net Charge of Ligand in FEP/MELD>
0

$$$$

  Mt7.00  01062308342D

 21 22  0  0  0  0  0  0  0  0999 V2000
    6.0000    0.8660    0.0000 C   0  0  0  0  0  0  0  0  0  0  0  0
    5.0000    0.8660    0.0000 C   0  0  0  0  0  0  0  0  0  0  0  0
    4.5000    0.0000    0.0000 O   0  0  0  0  0  0  0  0  0  0  0  0
    4.5000    1.7321    0.0000 N   0  0  0  0  0  0  0  0  0  0  0  0
    3.5000    1.7321    0.0000 C   0  0  0  0  0  0  0  0  0  0  0  0
    3.0000    2.5981    0.0000 C   0  0  0  0  0  0  0  0  0  0  0  0
    2.0000    2.5981    0.0000 C   0  0  0  0  0  0  0  0  0  0  0  0
    1.5000    1.7321    0.0000 C   0  0  0  0  0  0  0  0  0  0  0  0
    2.0000    0.8660    0.0000 C   0  0  0  0  0  0  0  0  0  0  0  0
    3.0000    0.8660    0.0000 N   0  0  0  0  0  0  0  0  0  0  0  0
    1.5000    3.4641    0.0000 N   0  0  0  0  0  0  0  0  0  0  0  0
    2.0000    4.3301    0.0000 C   0  0  0  0  0  0  0  0  0  0  0  0
    3.0000    4.3301    0.0000 O   0  0  0  0  0  0  0  0  0  0  0  0
    1.5000    5.1962    0.0000 C   0  0  0  0  0  0  0  0  0  0  0  0
    2.0000    6.0622    0.0000 C   0  0  0  0  0  0  0  0  0  0  0  0
    3.0000    6.0622    0.0000 Cl  0  0  0  0  0  0  0  0  0  0  0  0
    1.5000    6.9282    0.0000 C   0  0  0  0  0  0  0  0  0  0  0  0
    0.5000    6.9282    0.0000 C   0  0  0  0  0  0  0  0  0  0  0  0
    0.0000    6.0622    0.0000 C   0  0  0  0  0  0  0  0  0  0  0  0
    0.5000    5.1962    0.0000 C   0  0  0  0  0  0  0  0  0  0  0  0
    0.0000    4.3301    0.0000 Cl  0  0  0  0  0  0  0  0  0  0  0  0
  1  2  1  0  0  0  0
  2  3  2  0  0  0  0
  2  4  1  0  0  0  0
  4  5  1  0  0  0  0
  5  6  2  0  0  0  0
  6  7  1  0  0  0  0
  7  8  2  0  0  0  0
  8  9  1  0  0  0  0
  9 10  2  0  0  0  0
 10  5  1  0  0  0  0
  7 11  1  0  0  0  0
 11 12  1  0  0  0  0
 12 13  2  0  0  0  0
 12 14  1  0  0  0  0
 14 15  2  0  0  0  0
 15 16  1  0  0  0  0
 15 17  1  0  0  0  0
 17 18  2  0  0  0  0
 18 19  1  0  0  0  0
 19 20  2  0  0  0  0
 20 14  1  0  0  0  0
 20 21  1  0  0  0  0
M  END
> <ID>
L08

> <FEP+ dG (kcal/mol)>
-9.82

> <Experimental dG (kcal/mol)>
-9.54

> <System Name>
Tyk2

> <Similarity to L01 Reference (FCFP_4)>
0.775

> <SMILES>
CC(=O)Nc1cc(ccn1)NC(=O)c2c(Cl)cccc2Cl

> <Net Charge of Ligand in FEP/MELD>
0

$$$$

  Mt7.00  01062308342D

 22 23  0  0  0  0  0  0  0  0999 V2000
    6.5000    2.5981    0.0000 C   0  0  0  0  0  0  0  0  0  0  0  0
    6.0000    1.7321    0.0000 C   0  0  0  0  0  0  0  0  0  0  0  0
    5.0000    1.7321    0.0000 C   0  0  0  0  0  0  0  0  0  0  0  0
    4.5000    2.5981    0.0000 O   0  0  0  0  0  0  0  0  0  0  0  0
    4.5000    0.8660    0.0000 N   0  0  0  0  0  0  0  0  0  0  0  0
    3.5000    0.8660    0.0000 C   0  0  0  0  0  0  0  0  0  0  0  0
    3.0000    1.7321    0.0000 C   0  0  0  0  0  0  0  0  0  0  0  0
    2.0000    1.7321    0.0000 C   0  0  0  0  0  0  0  0  0  0  0  0
    1.5000    0.8660    0.0000 C   0  0  0  0  0  0  0  0  0  0  0  0
    2.0000    0.0000    0.0000 C   0  0  0  0  0  0  0  0  0  0  0  0
    3.0000    0.0000    0.0000 N   0  0  0  0  0  0  0  0  0  0  0  0
    1.5000    2.5981    0.0000 N   0  0  0  0  0  0  0  0  0  0  0  0
    2.0000    3.4641    0.0000 C   0  0  0  0  0  0  0  0  0  0  0  0
    3.0000    3.4641    0.0000 O   0  0  0  0  0  0  0  0  0  0  0  0
    1.5000    4.3301    0.0000 C   0  0  0  0  0  0  0  0  0  0  0  0
    2.0000    5.1962    0.0000 C   0  0  0  0  0  0  0  0  0  0  0  0
    3.0000    5.1962    0.0000 Cl  0  0  0  0  0  0  0  0  0  0  0  0
    1.5000    6.0622    0.0000 C   0  0  0  0  0  0  0  0  0  0  0  0
    0.5000    6.0622    0.0000 C   0  0  0  0  0  0  0  0  0  0  0  0
    0.0000    5.1962    0.0000 C   0  0  0  0  0  0  0  0  0  0  0  0
    0.5000    4.3301    0.0000 C   0  0  0  0  0  0  0  0  0  0  0  0
    0.0000    3.4641    0.0000 Cl  0  0  0  0  0  0  0  0  0  0  0  0
  1  2  1  0  0  0  0
  2  3  1  0  0  0  0
  3  4  2  0  0  0  0
  3  5  1  0  0  0  0
  5  6  1  0  0  0  0
  6  7  2  0  0  0  0
  7  8  1  0  0  0  0
  8  9  2  0  0  0  0
  9 10  1  0  0  0  0
 10 11  2  0  0  0  0
 11  6  1  0  0  0  0
  8 12  1  0  0  0  0
 12 13  1  0  0  0  0
 13 14  2  0  0  0  0
 13 15  1  0  0  0  0
 15 16  2  0  0  0  0
 16 17  1  0  0  0  0
 16 18  1  0  0  0  0
 18 19  2  0  0  0  0
 19 20  1  0  0  0  0
 20 21  2  0  0  0  0
 21 15  1  0  0  0  0
 21 22  1  0  0  0  0
M  END
> <ID>
L09

> <FEP+ dG (kcal/mol)>
-9.7

> <Experimental dG (kcal/mol)>
-9.78

> <System Name>
Tyk2

> <Similarity to L01 Reference (FCFP_4)>
0.780488

> <SMILES>
CCC(=O)Nc1cc(ccn1)NC(=O)c2c(Cl)cccc2Cl

> <Net Charge of Ligand in FEP/MELD>
0

$$$$

  Mt7.00  01062308342D

 24 26  0  0  0  0  0  0  0  0999 V2000
    4.5000    2.5981    0.0000 O   0  0  0  0  0  0  0  0  0  0  0  0
    5.0000    1.7321    0.0000 C   0  0  0  0  0  0  0  0  0  0  0  0
    6.0000    1.7321    0.0000 C   0  0  0  0  0  0  0  0  0  0  0  0
    6.5000    2.5981    0.0000 C   0  0  0  0  0  0  0  0  0  0  0  0
    7.3660    3.0981    0.0000 C   0  0  0  0  0  0  0  0  0  0  0  0
    6.5000    3.5981    0.0000 C   0  0  0  0  0  0  0  0  0  0  0  0
    4.5000    0.8660    0.0000 N   0  0  0  0  0  0  0  0  0  0  0  0
    3.5000    0.8660    0.0000 C   0  0  0  0  0  0  0  0  0  0  0  0
    3.0000    1.7321    0.0000 C   0  0  0  0  0  0  0  0  0  0  0  0
    2.0000    1.7321    0.0000 C   0  0  0  0  0  0  0  0  0  0  0  0
    1.5000    0.8660    0.0000 C   0  0  0  0  0  0  0  0  0  0  0  0
    2.0000    0.0000    0.0000 C   0  0  0  0  0  0  0  0  0  0  0  0
    3.0000    0.0000    0.0000 N   0  0  0  0  0  0  0  0  0  0  0  0
    1.5000    2.5981    0.0000 N   0  0  0  0  0  0  0  0  0  0  0  0
    2.0000    3.4641    0.0000 C   0  0  0  0  0  0  0  0  0  0  0  0
    3.0000    3.4641    0.0000 O   0  0  0  0  0  0  0  0  0  0  0  0
    1.5000    4.3301    0.0000 C   0  0  0  0  0  0  0  0  0  0  0  0
    2.0000    5.1962    0.0000 C   0  0  0  0  0  0  0  0  0  0  0  0
    3.0000    5.1962    0.0000 Cl  0  0  0  0  0  0  0  0  0  0  0  0
    1.5000    6.0622    0.0000 C   0  0  0  0  0  0  0  0  0  0  0  0
    0.5000    6.0622    0.0000 C   0  0  0  0  0  0  0  0  0  0  0  0
    0.0000    5.1962    0.0000 C   0  0  0  0  0  0  0  0  0  0  0  0
    0.5000    4.3301    0.0000 C   0  0  0  0  0  0  0  0  0  0  0  0
    0.0000    3.4641    0.0000 Cl  0  0  0  0  0  0  0  0  0  0  0  0
  1  2  2  0  0  0  0
  2  3  1  0  0  0  0
  3  4  1  0  0  0  0
  4  5  1  0  0  0  0
  5  6  1  0  0  0  0
  6  4  1  0  0  0  0
  2  7  1  0  0  0  0
  7  8  1  0  0  0  0
  8  9  2  0  0  0  0
  9 10  1  0  0  0  0
 10 11  2  0  0  0  0
 11 12  1  0  0  0  0
 12 13  2  0  0  0  0
 13  8  1  0  0  0  0
 10 14  1  0  0  0  0
 14 15  1  0  0  0  0
 15 16  2  0  0  0  0
 15 17  1  0  0  0  0
 17 18  2  0  0  0  0
 18 19  1  0  0  0  0
 18 20  1  0  0  0  0
 20 21  2  0  0  0  0
 21 22  1  0  0  0  0
 22 23  2  0  0  0  0
 23 17  1  0  0  0  0
 23 24  1  0  0  0  0
M  END
> <ID>
L10

> <FEP+ dG (kcal/mol)>
-9.62

> <Experimental dG (kcal/mol)>
-9.56

> <System Name>
Tyk2

> <Similarity to L01 Reference (FCFP_4)>
0.785714

> <SMILES>
O=C(CC1CC1)Nc2cc(ccn2)NC(=O)c3c(Cl)cccc3Cl

> <Net Charge of Ligand in FEP/MELD>
0

$$$$

  Mt7.00  01062308342D

 22 23  0  0  0  0  0  0  0  0999 V2000
    4.5000    2.5981    0.0000 O   0  0  0  0  0  0  0  0  0  0  0  0
    5.0000    1.7321    0.0000 C   0  0  0  0  0  0  0  0  0  0  0  0
    6.0000    1.7321    0.0000 C   0  0  0  0  0  0  0  0  0  0  0  0
    6.5000    2.5981    0.0000 O   0  0  0  0  0  0  0  0  0  0  0  0
    4.5000    0.8660    0.0000 N   0  0  0  0  0  0  0  0  0  0  0  0
    3.5000    0.8660    0.0000 C   0  0  0  0  0  0  0  0  0  0  0  0
    3.0000    1.7321    0.0000 C   0  0  0  0  0  0  0  0  0  0  0  0
    2.0000    1.7321    0.0000 C   0  0  0  0  0  0  0  0  0  0  0  0
    1.5000    0.8660    0.0000 C   0  0  0  0  0  0  0  0  0  0  0  0
    2.0000    0.0000    0.0000 C   0  0  0  0  0  0  0  0  0  0  0  0
    3.0000    0.0000    0.0000 N   0  0  0  0  0  0  0  0  0  0  0  0
    1.5000    2.5981    0.0000 N   0  0  0  0  0  0  0  0  0  0  0  0
    2.0000    3.4641    0.0000 C   0  0  0  0  0  0  0  0  0  0  0  0
    3.0000    3.4641    0.0000 O   0  0  0  0  0  0  0  0  0  0  0  0
    1.5000    4.3301    0.0000 C   0  0  0  0  0  0  0  0  0  0  0  0
    2.0000    5.1962    0.0000 C   0  0  0  0  0  0  0  0  0  0  0  0
    3.0000    5.1962    0.0000 Cl  0  0  0  0  0  0  0  0  0  0  0  0
    1.5000    6.0622    0.0000 C   0  0  0  0  0  0  0  0  0  0  0  0
    0.5000    6.0622    0.0000 C   0  0  0  0  0  0  0  0  0  0  0  0
    0.0000    5.1962    0.0000 C   0  0  0  0  0  0  0  0  0  0  0  0
    0.5000    4.3301    0.0000 C   0  0  0  0  0  0  0  0  0  0  0  0
    0.0000    3.4641    0.0000 Cl  0  0  0  0  0  0  0  0  0  0  0  0
  1  2  2  0  0  0  0
  2  3  1  0  0  0  0
  3  4  1  0  0  0  0
  2  5  1  0  0  0  0
  5  6  1  0  0  0  0
  6  7  2  0  0  0  0
  7  8  1  0  0  0  0
  8  9  2  0  0  0  0
  9 10  1  0  0  0  0
 10 11  2  0  0  0  0
 11  6  1  0  0  0  0
  8 12  1  0  0  0  0
 12 13  1  0  0  0  0
 13 14  2  0  0  0  0
 13 15  1  0  0  0  0
 15 16  2  0  0  0  0
 16 17  1  0  0  0  0
 16 18  1  0  0  0  0
 18 19  2  0  0  0  0
 19 20  1  0  0  0  0
 20 21  2  0  0  0  0
 21 15  1  0  0  0  0
 21 22  1  0  0  0  0
M  END
> <ID>
L11

> <FEP+ dG (kcal/mol)>
-9.52

> <Experimental dG (kcal/mol)>
-8.98

> <System Name>
Tyk2

> <Similarity to L01 Reference (FCFP_4)>
0.738095

> <SMILES>
O=C(CO)Nc1cc(ccn1)NC(=O)c2c(Cl)cccc2Cl

> <Net Charge of Ligand in FEP/MELD>
0

$$$$

  Mt7.00  01062308342D

 24 26  0  0  0  0  0  0  0  0999 V2000
    5.4659    2.0908    0.0000 O   0  0  0  0  0  0  0  0  0  0  0  0
    5.9659    2.9568    0.0000 C   0  0  0  0  0  0  0  0  0  0  0  0
    5.4659    3.8228    0.0000 N   0  0  0  0  0  0  0  0  0  0  0  0
    4.4659    3.8228    0.0000 C   0  0  0  0  0  0  0  0  0  0  0  0
    3.9659    4.6888    0.0000 C   0  0  0  0  0  0  0  0  0  0  0  0
    2.9659    4.6888    0.0000 C   0  0  0  0  0  0  0  0  0  0  0  0
    2.4659    3.8228    0.0000 N   0  0  0  0  0  0  0  0  0  0  0  0
    2.9659    2.9568    0.0000 C   0  0  0  0  0  0  0  0  0  0  0  0
    3.9659    2.9568    0.0000 C   0  0  0  0  0  0  0  0  0  0  0  0
    2.4659    2.0908    0.0000 N   0  0  0  0  0  0  0  0  0  0  0  0
    1.4659    2.0908    0.0000 C   0  0  0  0  0  0  0  0  0  0  0  0
    0.9659    2.9568    0.0000 O   0  0  0  0  0  0  0  0  0  0  0  0
    0.9659    1.2247    0.0000 C   0  0  0  0  0  0  0  0  0  0  0  0
    0.0000    0.9659    0.0000 C   0  0  0  0  0  0  0  0  0  0  0  0
    0.2588    0.0000    0.0000 C   0  0  0  0  0  0  0  0  0  0  0  0
    1.2247    0.2588    0.0000 C   0  0  0  0  0  0  0  0  0  0  0  0
    6.9659    2.9568    0.0000 C   0  0  0  0  0  0  0  0  0  0  0  0
    7.4659    2.0908    0.0000 C   0  0  0  0  0  0  0  0  0  0  0  0
    6.9659    1.2247    0.0000 Cl  0  0  0  0  0  0  0  0  0  0  0  0
    8.4659    2.0908    0.0000 C   0  0  0  0  0  0  0  0  0  0  0  0
    8.9659    2.9568    0.0000 C   0  0  0  0  0  0  0  0  0  0  0  0
    8.4659    3.8228    0.0000 C   0  0  0  0  0  0  0  0  0  0  0  0
    7.4659    3.8228    0.0000 C   0  0  0  0  0  0  0  0  0  0  0  0
    6.9659    4.6888    0.0000 Cl  0  0  0  0  0  0  0  0  0  0  0  0
  1  2  2  0  0  0  0
  2  3  1  0  0  0  0
  3  4  1  0  0  0  0
  4  5  2  0  0  0  0
  5  6  1  0  0  0  0
  6  7  2  0  0  0  0
  7  8  1  0  0  0  0
  8  9  2  0  0  0  0
  9  4  1  0  0  0  0
  8 10  1  0  0  0  0
 10 11  1  0  0  0  0
 11 12  2  0  0  0  0
 11 13  1  0  0  0  0
 13 14  1  0  0  0  0
 14 15  1  0  0  0  0
 15 16  1  0  0  0  0
 16 13  1  0  0  0  0
  2 17  1  0  0  0  0
 17 18  2  0  0  0  0
 18 19  1  0  0  0  0
 18 20  1  0  0  0  0
 20 21  2  0  0  0  0
 21 22  1  0  0  0  0
 22 23  2  0  0  0  0
 23 17  1  0  0  0  0
 23 24  1  0  0  0  0
M  END
> <ID>
L12

> <FEP+ dG (kcal/mol)>
-9.25

> <Experimental dG (kcal/mol)>
-9.7

> <System Name>
Tyk2

> <Similarity to L01 Reference (FCFP_4)>
0.829268

> <SMILES>
O=C(Nc1ccnc(c1)NC(=O)C2CCC2)c3c(Cl)cccc3Cl

> <Net Charge of Ligand in FEP/MELD>
0

$$$$

  Mt7.00  01062308342D

 26 28  0  0  0  0  0  0  0  0999 V2000
    4.5000    0.0000    0.0000 O   0  0  0  0  0  0  0  0  0  0  0  0
    5.0000    0.8660    0.0000 C   0  0  0  0  0  0  0  0  0  0  0  0
    4.5000    1.7321    0.0000 N   0  0  0  0  0  0  0  0  0  0  0  0
    3.5000    1.7321    0.0000 C   0  0  0  0  0  0  0  0  0  0  0  0
    3.0000    2.5981    0.0000 C   0  0  0  0  0  0  0  0  0  0  0  0
    2.0000    2.5981    0.0000 C   0  0  0  0  0  0  0  0  0  0  0  0
    1.5000    1.7321    0.0000 C   0  0  0  0  0  0  0  0  0  0  0  0
    2.0000    0.8660    0.0000 C   0  0  0  0  0  0  0  0  0  0  0  0
    3.0000    0.8660    0.0000 N   0  0  0  0  0  0  0  0  0  0  0  0
    1.5000    3.4641    0.0000 N   0  0  0  0  0  0  0  0  0  0  0  0
    2.0000    4.3301    0.0000 C   0  0  0  0  0  0  0  0  0  0  0  0
    3.0000    4.3301    0.0000 O   0  0  0  0  0  0  0  0  0  0  0  0
    1.5000    5.1962    0.0000 C   0  0  0  0  0  0  0  0  0  0  0  0
    2.0000    6.0622    0.0000 C   0  0  0  0  0  0  0  0  0  0  0  0
    3.0000    6.0622    0.0000 Cl  0  0  0  0  0  0  0  0  0  0  0  0
    1.5000    6.9282    0.0000 C   0  0  0  0  0  0  0  0  0  0  0  0
    0.5000    6.9282    0.0000 C   0  0  0  0  0  0  0  0  0  0  0  0
    0.0000    6.0622    0.0000 C   0  0  0  0  0  0  0  0  0  0  0  0
    0.5000    5.1962    0.0000 C   0  0  0  0  0  0  0  0  0  0  0  0
    0.0000    4.3301    0.0000 Cl  0  0  0  0  0  0  0  0  0  0  0  0
    6.0000    0.8660    0.0000 C   0  0  0  0  0  0  0  0  0  0  0  0
    6.5000    0.0000    0.0000 C   0  0  0  0  0  0  0  0  0  0  0  0
    7.5000    0.0000    0.0000 C   0  0  0  0  0  0  0  0  0  0  0  0
    8.0000    0.8660    0.0000 C   0  0  0  0  0  0  0  0  0  0  0  0
    7.5000    1.7321    0.0000 C   0  0  0  0  0  0  0  0  0  0  0  0
    6.5000    1.7321    0.0000 C   0  0  0  0  0  0  0  0  0  0  0  0
  1  2  2  0  0  0  0
  2  3  1  0  0  0  0
  3  4  1  0  0  0  0
  4  5  2  0  0  0  0
  5  6  1  0  0  0  0
  6  7  2  0  0  0  0
  7  8  1  0  0  0  0
  8  9  2  0  0  0  0
  9  4  1  0  0  0  0
  6 10  1  0  0  0  0
 10 11  1  0  0  0  0
 11 12  2  0  0  0  0
 11 13  1  0  0  0  0
 13 14  2  0  0  0  0
 14 15  1  0  0  0  0
 14 16  1  0  0  0  0
 16 17  2  0  0  0  0
 17 18  1  0  0  0  0
 18 19  2  0  0  0  0
 19 13  1  0  0  0  0
 19 20  1  0  0  0  0
  2 21  1  0  0  0  0
 21 22  2  0  0  0  0
 22 23  1  0  0  0  0
 23 24  2  0  0  0  0
 24 25  1  0  0  0  0
 25 26  2  0  0  0  0
 26 21  1  0  0  0  0
M  END
> <ID>
L13

> <FEP+ dG (kcal/mol)>
-8.81

> <Experimental dG (kcal/mol)>
-7.75

> <System Name>
Tyk2

> <Similarity to L01 Reference (FCFP_4)>
0.707317

> <SMILES>
O=C(Nc1cc(ccn1)NC(=O)c2c(Cl)cccc2Cl)c3ccccc3

> <Net Charge of Ligand in FEP/MELD>
0

$$$$

  Mt7.00  01062308342D

 25 27  0  0  0  0  0  0  0  0999 V2000
    5.7024    2.4487    0.0000 O   0  0  0  0  0  0  0  0  0  0  0  0
    6.2024    3.3147    0.0000 C   0  0  0  0  0  0  0  0  0  0  0  0
    5.7024    4.1808    0.0000 N   0  0  0  0  0  0  0  0  0  0  0  0
    4.7024    4.1808    0.0000 C   0  0  0  0  0  0  0  0  0  0  0  0
    4.2024    5.0468    0.0000 C   0  0  0  0  0  0  0  0  0  0  0  0
    3.2024    5.0468    0.0000 C   0  0  0  0  0  0  0  0  0  0  0  0
    2.7024    4.1808    0.0000 N   0  0  0  0  0  0  0  0  0  0  0  0
    3.2024    3.3147    0.0000 C   0  0  0  0  0  0  0  0  0  0  0  0
    4.2024    3.3147    0.0000 C   0  0  0  0  0  0  0  0  0  0  0  0
    2.7024    2.4487    0.0000 N   0  0  0  0  0  0  0  0  0  0  0  0
    1.7024    2.4487    0.0000 C   0  0  0  0  0  0  0  0  0  0  0  0
    1.2024    3.3147    0.0000 O   0  0  0  0  0  0  0  0  0  0  0  0
    1.2024    1.5827    0.0000 C   0  0  0  0  0  0  0  0  0  0  0  0
    0.2079    1.4781    0.0000 C   0  0  0  0  0  0  0  0  0  0  0  0
    0.0000    0.5000    0.0000 C   0  0  0  0  0  0  0  0  0  0  0  0
    0.8660    0.0000    0.0000 C   0  0  0  0  0  0  0  0  0  0  0  0
    1.6092    0.6691    0.0000 C   0  0  0  0  0  0  0  0  0  0  0  0
    7.2024    3.3147    0.0000 C   0  0  0  0  0  0  0  0  0  0  0  0
    7.7024    2.4487    0.0000 C   0  0  0  0  0  0  0  0  0  0  0  0
    7.2024    1.5827    0.0000 Cl  0  0  0  0  0  0  0  0  0  0  0  0
    8.7024    2.4487    0.0000 C   0  0  0  0  0  0  0  0  0  0  0  0
    9.2024    3.3147    0.0000 C   0  0  0  0  0  0  0  0  0  0  0  0
    8.7024    4.1808    0.0000 C   0  0  0  0  0  0  0  0  0  0  0  0
    7.7024    4.1808    0.0000 C   0  0  0  0  0  0  0  0  0  0  0  0
    7.2024    5.0468    0.0000 Cl  0  0  0  0  0  0  0  0  0  0  0  0
  1  2  2  0  0  0  0
  2  3  1  0  0  0  0
  3  4  1  0  0  0  0
  4  5  2  0  0  0  0
  5  6  1  0  0  0  0
  6  7  2  0  0  0  0
  7  8  1  0  0  0  0
  8  9  2  0  0  0  0
  9  4  1  0  0  0  0
  8 10  1  0  0  0  0
 10 11  1  0  0  0  0
 11 12  2  0  0  0  0
 11 13  1  0  0  0  0
 13 14  1  0  0  0  0
 14 15  1  0  0  0  0
 15 16  1  0  0  0  0
 16 17  1  0  0  0  0
 17 13  1  0  0  0  0
  2 18  1  0  0  0  0
 18 19  2  0  0  0  0
 19 20  1  0  0  0  0
 19 21  1  0  0  0  0
 21 22  2  0  0  0  0
 22 23  1  0  0  0  0
 23 24  2  0  0  0  0
 24 18  1  0  0  0  0
 24 25  1  0  0  0  0
M  END
> <ID>
L14

> <FEP+ dG (kcal/mol)>
-8.64

> <Experimental dG (kcal/mol)>
-9

> <System Name>
Tyk2

> <Similarity to L01 Reference (FCFP_4)>
0.829268

> <SMILES>
O=C(Nc1ccnc(c1)NC(=O)C2CCCC2)c3c(Cl)cccc3Cl

> <Net Charge of Ligand in FEP/MELD>
0

$$$$

  Mt7.00  01062308342D

 23 24  0  0  0  0  0  0  0  0999 V2000
    6.5000    2.5981    0.0000 C   0  0  0  0  0  0  0  0  0  0  0  0
    6.0000    1.7321    0.0000 C   0  0  0  0  0  0  0  0  0  0  0  0
    6.5000    0.8660    0.0000 C   0  0  0  0  0  0  0  0  0  0  0  0
    5.0000    1.7321    0.0000 C   0  0  0  0  0  0  0  0  0  0  0  0
    4.5000    2.5981    0.0000 O   0  0  0  0  0  0  0  0  0  0  0  0
    4.5000    0.8660    0.0000 N   0  0  0  0  0  0  0  0  0  0  0  0
    3.5000    0.8660    0.0000 C   0  0  0  0  0  0  0  0  0  0  0  0
    3.0000    1.7321    0.0000 C   0  0  0  0  0  0  0  0  0  0  0  0
    2.0000    1.7321    0.0000 C   0  0  0  0  0  0  0  0  0  0  0  0
    1.5000    0.8660    0.0000 C   0  0  0  0  0  0  0  0  0  0  0  0
    2.0000    0.0000    0.0000 C   0  0  0  0  0  0  0  0  0  0  0  0
    3.0000    0.0000    0.0000 N   0  0  0  0  0  0  0  0  0  0  0  0
    1.5000    2.5981    0.0000 N   0  0  0  0  0  0  0  0  0  0  0  0
    2.0000    3.4641    0.0000 C   0  0  0  0  0  0  0  0  0  0  0  0
    3.0000    3.4641    0.0000 O   0  0  0  0  0  0  0  0  0  0  0  0
    1.5000    4.3301    0.0000 C   0  0  0  0  0  0  0  0  0  0  0  0
    2.0000    5.1962    0.0000 C   0  0  0  0  0  0  0  0  0  0  0  0
    3.0000    5.1962    0.0000 Cl  0  0  0  0  0  0  0  0  0  0  0  0
    1.5000    6.0622    0.0000 C   0  0  0  0  0  0  0  0  0  0  0  0
    0.5000    6.0622    0.0000 C   0  0  0  0  0  0  0  0  0  0  0  0
    0.0000    5.1962    0.0000 C   0  0  0  0  0  0  0  0  0  0  0  0
    0.5000    4.3301    0.0000 C   0  0  0  0  0  0  0  0  0  0  0  0
    0.0000    3.4641    0.0000 Cl  0  0  0  0  0  0  0  0  0  0  0  0
  1  2  1  0  0  0  0
  2  3  1  0  0  0  0
  2  4  1  0  0  0  0
  4  5  2  0  0  0  0
  4  6  1  0  0  0  0
  6  7  1  0  0  0  0
  7  8  2  0  0  0  0
  8  9  1  0  0  0  0
  9 10  2  0  0  0  0
 10 11  1  0  0  0  0
 11 12  2  0  0  0  0
 12  7  1  0  0  0  0
  9 13  1  0  0  0  0
 13 14  1  0  0  0  0
 14 15  2  0  0  0  0
 14 16  1  0  0  0  0
 16 17  2  0  0  0  0
 17 18  1  0  0  0  0
 17 19  1  0  0  0  0
 19 20  2  0  0  0  0
 20 21  1  0  0  0  0
 21 22  2  0  0  0  0
 22 16  1  0  0  0  0
 22 23  1  0  0  0  0
M  END
> <ID>
L15

> <FEP+ dG (kcal/mol)>
-8.18

> <Experimental dG (kcal/mol)>
-8.26

> <System Name>
Tyk2

> <Similarity to L01 Reference (FCFP_4)>
0.825

> <SMILES>
CC(C)C(=O)Nc1cc(ccn1)NC(=O)c2c(Cl)cccc2Cl

> <Net Charge of Ligand in FEP/MELD>
0

$$$$

  Mt7.00  01062308342D

 24 25  0  0  0  0  0  0  0  0999 V2000
    8.5000    4.3301    0.0000 C   0  0  0  0  0  0  0  0  0  0  0  0
    8.0000    3.4641    0.0000 C   0  0  0  0  0  0  0  0  0  0  0  0
    7.1340    3.9641    0.0000 C   0  0  0  0  0  0  0  0  0  0  0  0
    8.8660    2.9641    0.0000 C   0  0  0  0  0  0  0  0  0  0  0  0
    7.5000    2.5981    0.0000 C   0  0  0  0  0  0  0  0  0  0  0  0
    8.0000    1.7321    0.0000 O   0  0  0  0  0  0  0  0  0  0  0  0
    6.5000    2.5981    0.0000 N   0  0  0  0  0  0  0  0  0  0  0  0
    6.0000    1.7321    0.0000 C   0  0  0  0  0  0  0  0  0  0  0  0
    5.0000    1.7321    0.0000 C   0  0  0  0  0  0  0  0  0  0  0  0
    4.5000    0.8660    0.0000 C   0  0  0  0  0  0  0  0  0  0  0  0
    5.0000    0.0000    0.0000 C   0  0  0  0  0  0  0  0  0  0  0  0
    6.0000    0.0000    0.0000 C   0  0  0  0  0  0  0  0  0  0  0  0
    6.5000    0.8660    0.0000 N   0  0  0  0  0  0  0  0  0  0  0  0
    3.5000    0.8660    0.0000 N   0  0  0  0  0  0  0  0  0  0  0  0
    3.0000    1.7321    0.0000 C   0  0  0  0  0  0  0  0  0  0  0  0
    3.5000    2.5981    0.0000 O   0  0  0  0  0  0  0  0  0  0  0  0
    2.0000    1.7321    0.0000 C   0  0  0  0  0  0  0  0  0  0  0  0
    1.5000    2.5981    0.0000 C   0  0  0  0  0  0  0  0  0  0  0  0
    2.0000    3.4641    0.0000 Cl  0  0  0  0  0  0  0  0  0  0  0  0
    0.5000    2.5981    0.0000 C   0  0  0  0  0  0  0  0  0  0  0  0
    0.0000    1.7321    0.0000 C   0  0  0  0  0  0  0  0  0  0  0  0
    0.5000    0.8660    0.0000 C   0  0  0  0  0  0  0  0  0  0  0  0
    1.5000    0.8660    0.0000 C   0  0  0  0  0  0  0  0  0  0  0  0
    2.0000    0.0000    0.0000 Cl  0  0  0  0  0  0  0  0  0  0  0  0
  1  2  1  0  0  0  0
  2  3  1  0  0  0  0
  2  4  1  0  0  0  0
  2  5  1  0  0  0  0
  5  6  2  0  0  0  0
  5  7  1  0  0  0  0
  7  8  1  0  0  0  0
  8  9  2  0  0  0  0
  9 10  1  0  0  0  0
 10 11  2  0  0  0  0
 11 12  1  0  0  0  0
 12 13  2  0  0  0  0
 13  8  1  0  0  0  0
 10 14  1  0  0  0  0
 14 15  1  0  0  0  0
 15 16  2  0  0  0  0
 15 17  1  0  0  0  0
 17 18  2  0  0  0  0
 18 19  1  0  0  0  0
 18 20  1  0  0  0  0
 20 21  2  0  0  0  0
 21 22  1  0  0  0  0
 22 23  2  0  0  0  0
 23 17  1  0  0  0  0
 23 24  1  0  0  0  0
M  END
> <ID>
L16

> <FEP+ dG (kcal/mol)>
-7.01

> <Experimental dG (kcal/mol)>
-7.42

> <System Name>
Tyk2

> <Similarity to L01 Reference (FCFP_4)>
0.738095

> <SMILES>
CC(C)(C)C(=O)Nc1cc(ccn1)NC(=O)c2c(Cl)cccc2Cl

> <Net Charge of Ligand in FEP/MELD>
0

$$$$

  Mt7.00  01062308342D

 26 29  0  0  1  0  0  0  0  0999 V2000
    6.6160    6.9073    0.0000 C   0  0  0  0  0  0  0  0  0  0  0  0
    5.6160    6.9073    0.0000 C   0  0  0  0  0  0  0  0  0  0  0  0
    4.6160    6.9073    0.0000 C   0  0  0  0  0  0  0  0  0  0  0  0
    3.6160    6.9073    0.0000 C   0  0  0  0  0  0  0  0  0  0  0  0
    3.1160    7.7734    0.0000 C   0  0  0  0  0  0  0  0  0  0  0  0
    2.1160    7.7734    0.0000 N   0  0  0  0  0  0  0  0  0  0  0  0
    1.6160    6.9073    0.0000 C   0  0  0  0  0  0  0  0  0  0  0  0
    2.1160    6.0413    0.0000 C   0  0  0  0  0  0  0  0  0  0  0  0
    3.1160    6.0413    0.0000 C   0  0  0  0  0  0  0  0  0  0  0  0
    1.6160    5.1753    0.0000 C   0  0  0  0  0  0  0  0  0  0  0  0
    0.6160    5.1753    0.0000 C   0  0  0  0  0  0  0  0  0  0  0  0
    0.1160    4.3092    0.0000 C   0  0  0  0  0  0  0  0  0  0  0  0
    0.6160    3.4432    0.0000 C   0  0  0  0  0  0  0  0  0  0  0  0
    1.6160    3.4432    0.0000 C   0  0  0  0  0  0  0  0  0  0  0  0
    2.1160    4.3092    0.0000 C   0  0  0  0  0  0  0  0  0  0  0  0
    2.1160    2.5772    0.0000 C   0  0  3  0  0  0  0  0  0  0  0  0
    1.1215    2.4727    0.0000 N   0  3  0  0  0  0  0  0  0  0  0  0
    0.9135    1.4945    0.0000 C   0  0  0  0  0  0  0  0  0  0  0  0
    0.0000    1.0878    0.0000 N   0  0  0  0  0  0  0  0  0  0  0  0
    1.7796    0.9945    0.0000 N   0  0  0  0  0  0  0  0  0  0  0  0
    1.8841    0.0000    0.0000 C   0  0  0  0  0  0  0  0  0  0  0  0
    2.5227    1.6637    0.0000 C   0  0  0  0  0  0  0  0  0  0  0  0
    3.5009    1.4557    0.0000 O   0  0  0  0  0  0  0  0  0  0  0  0
    3.1160    2.5772    0.0000 C   0  0  0  0  0  0  0  0  0  0  0  0
    3.9820    2.0772    0.0000 C   0  0  0  0  0  0  0  0  0  0  0  0
    3.9820    3.0772    0.0000 C   0  0  0  0  0  0  0  0  0  0  0  0
  1  2  1  0  0  0  0
  2  3  3  0  0  0  0
  3  4  1  0  0  0  0
  4  5  2  0  0  0  0
  5  6  1  0  0  0  0
  6  7  2  0  0  0  0
  7  8  1  0  0  0  0
  8  9  2  0  0  0  0
  9  4  1  0  0  0  0
  8 10  1  0  0  0  0
 10 11  2  0  0  0  0
 11 12  1  0  0  0  0
 12 13  2  0  0  0  0
 13 14  1  0  0  0  0
 14 15  2  0  0  0  0
 15 10  1  0  0  0  0
 14 16  1  0  0  0  0
 16 17  1  0  0  0  0
 17 18  2  0  0  0  0
 18 19  1  0  0  0  0
 18 20  1  0  0  0  0
 20 21  1  0  0  0  0
 20 22  1  0  0  0  0
 22 16  1  0  0  0  0
 22 23  2  0  0  0  0
 16 24  1  1  0  0  0
 24 25  1  0  0  0  0
 25 26  1  0  0  0  0
 26 24  1  0  0  0  0
M  CHG  1  17   1
M  END
> <ID>
L01

> <FEP+ dG (kcal/mol)>
-12.35

> <Experimental dG (kcal/mol)>
-11.35

> <System Name>
BACE

> <Similarity to L01 Reference (FCFP_4)>
1

> <SMILES>
CC#Cc1cncc(c1)c2cccc(c2)[C@]3([NH+]=C(N)N(C)C3=O)C4CC4

> <Net Charge of Ligand in FEP/MELD>
1

$$$$

  Mt7.00  01062308342D

 25 28  0  0  1  0  0  0  0  0999 V2000
    7.6160    2.8407    0.0000 C   0  0  0  0  0  0  0  0  0  0  0  0
    6.7024    3.2475    0.0000 N   0  0  0  0  0  0  0  0  0  0  0  0
    5.8364    2.7475    0.0000 C   0  0  0  0  0  0  0  0  0  0  0  0
    5.7319    1.7529    0.0000 N   0  0  0  0  0  0  0  0  0  0  0  0
    5.0933    3.4166    0.0000 N   0  3  0  0  0  0  0  0  0  0  0  0
    5.5000    4.3301    0.0000 C   0  0  3  0  0  0  0  0  0  0  0  0
    6.4945    4.2256    0.0000 C   0  0  0  0  0  0  0  0  0  0  0  0
    7.1637    4.9687    0.0000 O   0  0  0  0  0  0  0  0  0  0  0  0
    4.5000    4.3301    0.0000 C   0  0  0  0  0  0  0  0  0  0  0  0
    4.0000    5.1962    0.0000 C   0  0  0  0  0  0  0  0  0  0  0  0
    3.0000    5.1962    0.0000 C   0  0  0  0  0  0  0  0  0  0  0  0
    2.5000    4.3301    0.0000 C   0  0  0  0  0  0  0  0  0  0  0  0
    3.0000    3.4641    0.0000 C   0  0  0  0  0  0  0  0  0  0  0  0
    4.0000    3.4641    0.0000 C   0  0  0  0  0  0  0  0  0  0  0  0
    2.5000    2.5981    0.0000 C   0  0  0  0  0  0  0  0  0  0  0  0
    1.5000    2.5981    0.0000 C   0  0  0  0  0  0  0  0  0  0  0  0
    1.0000    1.7321    0.0000 C   0  0  0  0  0  0  0  0  0  0  0  0
    0.0000    1.7321    0.0000 Cl  0  0  0  0  0  0  0  0  0  0  0  0
    1.5000    0.8660    0.0000 C   0  0  0  0  0  0  0  0  0  0  0  0
    2.5000    0.8660    0.0000 C   0  0  0  0  0  0  0  0  0  0  0  0
    3.0000    0.0000    0.0000 Cl  0  0  0  0  0  0  0  0  0  0  0  0
    3.0000    1.7321    0.0000 C   0  0  0  0  0  0  0  0  0  0  0  0
    6.0000    5.1962    0.0000 C   0  0  0  0  0  0  0  0  0  0  0  0
    6.8660    5.6962    0.0000 C   0  0  0  0  0  0  0  0  0  0  0  0
    6.0000    6.1962    0.0000 C   0  0  0  0  0  0  0  0  0  0  0  0
  1  2  1  0  0  0  0
  2  3  1  0  0  0  0
  3  4  1  0  0  0  0
  3  5  2  0  0  0  0
  5  6  1  0  0  0  0
  6  7  1  0  0  0  0
  7  2  1  0  0  0  0
  7  8  2  0  0  0  0
  6  9  1  0  0  0  0
  9 10  2  0  0  0  0
 10 11  1  0  0  0  0
 11 12  2  0  0  0  0
 12 13  1  0  0  0  0
 13 14  2  0  0  0  0
 14  9  1  0  0  0  0
 13 15  1  0  0  0  0
 15 16  2  0  0  0  0
 16 17  1  0  0  0  0
 17 18  1  0  0  0  0
 17 19  2  0  0  0  0
 19 20  1  0  0  0  0
 20 21  1  0  0  0  0
 20 22  2  0  0  0  0
 22 15  1  0  0  0  0
  6 23  1  1  0  0  0
 23 24  1  0  0  0  0
 24 25  1  0  0  0  0
 25 23  1  0  0  0  0
M  CHG  1   5   1
M  END
> <ID>
L02

> <FEP+ dG (kcal/mol)>
-11.29

> <Experimental dG (kcal/mol)>
-10.73

> <System Name>
BACE

> <Similarity to L01 Reference (FCFP_4)>
0.62

> <SMILES>
CN1C(N)=[NH+][C@@](C1=O)(c2cccc(c2)c3cc(Cl)cc(Cl)c3)C4CC4

> <Net Charge of Ligand in FEP/MELD>
1

$$$$

  Mt7.00  01062308342D

 25 28  0  0  1  0  0  0  0  0999 V2000
    5.1160    7.7734    0.0000 C   0  0  0  0  0  0  0  0  0  0  0  0
    4.6160    6.9073    0.0000 O   0  0  0  0  0  0  0  0  0  0  0  0
    3.6160    6.9073    0.0000 C   0  0  0  0  0  0  0  0  0  0  0  0
    3.1160    7.7734    0.0000 C   0  0  0  0  0  0  0  0  0  0  0  0
    2.1160    7.7734    0.0000 C   0  0  0  0  0  0  0  0  0  0  0  0
    1.6160    6.9073    0.0000 C   0  0  0  0  0  0  0  0  0  0  0  0
    2.1160    6.0413    0.0000 C   0  0  0  0  0  0  0  0  0  0  0  0
    3.1160    6.0413    0.0000 C   0  0  0  0  0  0  0  0  0  0  0  0
    1.6160    5.1753    0.0000 C   0  0  0  0  0  0  0  0  0  0  0  0
    0.6160    5.1753    0.0000 C   0  0  0  0  0  0  0  0  0  0  0  0
    0.1160    4.3092    0.0000 C   0  0  0  0  0  0  0  0  0  0  0  0
    0.6160    3.4432    0.0000 C   0  0  0  0  0  0  0  0  0  0  0  0
    1.6160    3.4432    0.0000 C   0  0  0  0  0  0  0  0  0  0  0  0
    2.1160    4.3092    0.0000 C   0  0  0  0  0  0  0  0  0  0  0  0
    2.1160    2.5772    0.0000 C   0  0  3  0  0  0  0  0  0  0  0  0
    1.1215    2.4727    0.0000 N   0  3  0  0  0  0  0  0  0  0  0  0
    0.9135    1.4945    0.0000 C   0  0  0  0  0  0  0  0  0  0  0  0
    0.0000    1.0878    0.0000 N   0  0  0  0  0  0  0  0  0  0  0  0
    1.7796    0.9945    0.0000 N   0  0  0  0  0  0  0  0  0  0  0  0
    1.8841    0.0000    0.0000 C   0  0  0  0  0  0  0  0  0  0  0  0
    2.5227    1.6637    0.0000 C   0  0  0  0  0  0  0  0  0  0  0  0
    3.5009    1.4557    0.0000 O   0  0  0  0  0  0  0  0  0  0  0  0
    3.1160    2.5772    0.0000 C   0  0  0  0  0  0  0  0  0  0  0  0
    3.9820    2.0772    0.0000 C   0  0  0  0  0  0  0  0  0  0  0  0
    3.9820    3.0772    0.0000 C   0  0  0  0  0  0  0  0  0  0  0  0
  1  2  1  0  0  0  0
  2  3  1  0  0  0  0
  3  4  2  0  0  0  0
  4  5  1  0  0  0  0
  5  6  2  0  0  0  0
  6  7  1  0  0  0  0
  7  8  2  0  0  0  0
  8  3  1  0  0  0  0
  7  9  1  0  0  0  0
  9 10  2  0  0  0  0
 10 11  1  0  0  0  0
 11 12  2  0  0  0  0
 12 13  1  0  0  0  0
 13 14  2  0  0  0  0
 14  9  1  0  0  0  0
 13 15  1  0  0  0  0
 15 16  1  0  0  0  0
 16 17  2  0  0  0  0
 17 18  1  0  0  0  0
 17 19  1  0  0  0  0
 19 20  1  0  0  0  0
 19 21  1  0  0  0  0
 21 15  1  0  0  0  0
 21 22  2  0  0  0  0
 15 23  1  1  0  0  0
 23 24  1  0  0  0  0
 24 25  1  0  0  0  0
 25 23  1  0  0  0  0
M  CHG  1  16   1
M  END
> <ID>
L03

> <FEP+ dG (kcal/mol)>
-10.91

> <Experimental dG (kcal/mol)>
-10.02

> <System Name>
BACE

> <Similarity to L01 Reference (FCFP_4)>
0.62

> <SMILES>
COc1cccc(c1)c2cccc(c2)[C@]3([NH+]=C(N)N(C)C3=O)C4CC4

> <Net Charge of Ligand in FEP/MELD>
1

$$$$

  Mt7.00  01062308342D

 25 28  0  0  1  0  0  0  0  0999 V2000
    5.1160    7.7734    0.0000 C   0  0  0  0  0  0  0  0  0  0  0  0
    4.6160    6.9073    0.0000 O   0  0  0  0  0  0  0  0  0  0  0  0
    3.6160    6.9073    0.0000 C   0  0  0  0  0  0  0  0  0  0  0  0
    3.1160    7.7734    0.0000 C   0  0  0  0  0  0  0  0  0  0  0  0
    2.1160    7.7734    0.0000 N   0  0  0  0  0  0  0  0  0  0  0  0
    1.6160    6.9073    0.0000 C   0  0  0  0  0  0  0  0  0  0  0  0
    2.1160    6.0413    0.0000 C   0  0  0  0  0  0  0  0  0  0  0  0
    3.1160    6.0413    0.0000 C   0  0  0  0  0  0  0  0  0  0  0  0
    1.6160    5.1753    0.0000 C   0  0  0  0  0  0  0  0  0  0  0  0
    0.6160    5.1753    0.0000 C   0  0  0  0  0  0  0  0  0  0  0  0
    0.1160    4.3092    0.0000 C   0  0  0  0  0  0  0  0  0  0  0  0
    0.6160    3.4432    0.0000 C   0  0  0  0  0  0  0  0  0  0  0  0
    1.6160    3.4432    0.0000 C   0  0  0  0  0  0  0  0  0  0  0  0
    2.1160    4.3092    0.0000 C   0  0  0  0  0  0  0  0  0  0  0  0
    2.1160    2.5772    0.0000 C   0  0  3  0  0  0  0  0  0  0  0  0
    1.1215    2.4727    0.0000 N   0  3  0  0  0  0  0  0  0  0  0  0
    0.9135    1.4945    0.0000 C   0  0  0  0  0  0  0  0  0  0  0  0
    0.0000    1.0878    0.0000 N   0  0  0  0  0  0  0  0  0  0  0  0
    1.7796    0.9945    0.0000 N   0  0  0  0  0  0  0  0  0  0  0  0
    1.8841    0.0000    0.0000 C   0  0  0  0  0  0  0  0  0  0  0  0
    2.5227    1.6637    0.0000 C   0  0  0  0  0  0  0  0  0  0  0  0
    3.5009    1.4557    0.0000 O   0  0  0  0  0  0  0  0  0  0  0  0
    3.1160    2.5772    0.0000 C   0  0  0  0  0  0  0  0  0  0  0  0
    3.9820    2.0772    0.0000 C   0  0  0  0  0  0  0  0  0  0  0  0
    3.9820    3.0772    0.0000 C   0  0  0  0  0  0  0  0  0  0  0  0
  1  2  1  0  0  0  0
  2  3  1  0  0  0  0
  3  4  2  0  0  0  0
  4  5  1  0  0  0  0
  5  6  2  0  0  0  0
  6  7  1  0  0  0  0
  7  8  2  0  0  0  0
  8  3  1  0  0  0  0
  7  9  1  0  0  0  0
  9 10  2  0  0  0  0
 10 11  1  0  0  0  0
 11 12  2  0  0  0  0
 12 13  1  0  0  0  0
 13 14  2  0  0  0  0
 14  9  1  0  0  0  0
 13 15  1  0  0  0  0
 15 16  1  0  0  0  0
 16 17  2  0  0  0  0
 17 18  1  0  0  0  0
 17 19  1  0  0  0  0
 19 20  1  0  0  0  0
 19 21  1  0  0  0  0
 21 15  1  0  0  0  0
 21 22  2  0  0  0  0
 15 23  1  1  0  0  0
 23 24  1  0  0  0  0
 24 25  1  0  0  0  0
 25 23  1  0  0  0  0
M  CHG  1  16   1
M  END
> <ID>
L04

> <FEP+ dG (kcal/mol)>
-10.47

> <Experimental dG (kcal/mol)>
-10.02

> <System Name>
BACE

> <Similarity to L01 Reference (FCFP_4)>
0.74

> <SMILES>
COc1cncc(c1)c2cccc(c2)[C@]3([NH+]=C(N)N(C)C3=O)C4CC4

> <Net Charge of Ligand in FEP/MELD>
1

$$$$

  Mt7.00  01062308342D

 25 28  0  0  1  0  0  0  0  0999 V2000
    6.6160    3.7067    0.0000 C   0  0  0  0  0  0  0  0  0  0  0  0
    5.7024    4.1135    0.0000 N   0  0  0  0  0  0  0  0  0  0  0  0
    4.8364    3.6135    0.0000 C   0  0  0  0  0  0  0  0  0  0  0  0
    4.7319    2.6190    0.0000 N   0  0  0  0  0  0  0  0  0  0  0  0
    4.0933    4.2826    0.0000 N   0  3  0  0  0  0  0  0  0  0  0  0
    4.5000    5.1962    0.0000 C   0  0  3  0  0  0  0  0  0  0  0  0
    5.4945    5.0916    0.0000 C   0  0  0  0  0  0  0  0  0  0  0  0
    6.1637    5.8348    0.0000 O   0  0  0  0  0  0  0  0  0  0  0  0
    3.5000    5.1962    0.0000 C   0  0  0  0  0  0  0  0  0  0  0  0
    3.0000    6.0622    0.0000 C   0  0  0  0  0  0  0  0  0  0  0  0
    2.0000    6.0622    0.0000 C   0  0  0  0  0  0  0  0  0  0  0  0
    1.5000    5.1962    0.0000 C   0  0  0  0  0  0  0  0  0  0  0  0
    2.0000    4.3301    0.0000 C   0  0  0  0  0  0  0  0  0  0  0  0
    3.0000    4.3301    0.0000 C   0  0  0  0  0  0  0  0  0  0  0  0
    1.5000    3.4641    0.0000 C   0  0  0  0  0  0  0  0  0  0  0  0
    0.5000    3.4641    0.0000 C   0  0  0  0  0  0  0  0  0  0  0  0
    0.0000    2.5981    0.0000 N   0  0  0  0  0  0  0  0  0  0  0  0
    0.5000    1.7321    0.0000 C   0  0  0  0  0  0  0  0  0  0  0  0
    1.5000    1.7321    0.0000 C   0  0  0  0  0  0  0  0  0  0  0  0
    2.0000    0.8660    0.0000 C   0  0  0  0  0  0  0  0  0  0  0  0
    2.5000    0.0000    0.0000 N   0  0  0  0  0  0  0  0  0  0  0  0
    2.0000    2.5981    0.0000 C   0  0  0  0  0  0  0  0  0  0  0  0
    5.0000    6.0622    0.0000 C   0  0  0  0  0  0  0  0  0  0  0  0
    5.8660    6.5622    0.0000 C   0  0  0  0  0  0  0  0  0  0  0  0
    5.0000    7.0622    0.0000 C   0  0  0  0  0  0  0  0  0  0  0  0
  1  2  1  0  0  0  0
  2  3  1  0  0  0  0
  3  4  1  0  0  0  0
  3  5  2  0  0  0  0
  5  6  1  0  0  0  0
  6  7  1  0  0  0  0
  7  2  1  0  0  0  0
  7  8  2  0  0  0  0
  6  9  1  0  0  0  0
  9 10  2  0  0  0  0
 10 11  1  0  0  0  0
 11 12  2  0  0  0  0
 12 13  1  0  0  0  0
 13 14  2  0  0  0  0
 14  9  1  0  0  0  0
 13 15  1  0  0  0  0
 15 16  2  0  0  0  0
 16 17  1  0  0  0  0
 17 18  2  0  0  0  0
 18 19  1  0  0  0  0
 19 20  1  0  0  0  0
 20 21  3  0  0  0  0
 19 22  2  0  0  0  0
 22 15  1  0  0  0  0
  6 23  1  1  0  0  0
 23 24  1  0  0  0  0
 24 25  1  0  0  0  0
 25 23  1  0  0  0  0
M  CHG  1   5   1
M  END
> <ID>
L05

> <FEP+ dG (kcal/mol)>
-10.45

> <Experimental dG (kcal/mol)>
-9.42

> <System Name>
BACE

> <Similarity to L01 Reference (FCFP_4)>
0.77551

> <SMILES>
CN1C(N)=[NH+][C@@](C1=O)(c2cccc(c2)c3cncc(C#N)c3)C4CC4

> <Net Charge of Ligand in FEP/MELD>
1

$$$$

  Mt7.00  01062308342D

 24 27  0  0  1  0  0  0  0  0999 V2000
    6.6160    2.8407    0.0000 C   0  0  0  0  0  0  0  0  0  0  0  0
    5.7024    3.2475    0.0000 N   0  0  0  0  0  0  0  0  0  0  0  0
    4.8364    2.7475    0.0000 C   0  0  0  0  0  0  0  0  0  0  0  0
    4.7319    1.7529    0.0000 N   0  0  0  0  0  0  0  0  0  0  0  0
    4.0933    3.4166    0.0000 N   0  3  0  0  0  0  0  0  0  0  0  0
    4.5000    4.3301    0.0000 C   0  0  3  0  0  0  0  0  0  0  0  0
    5.4945    4.2256    0.0000 C   0  0  0  0  0  0  0  0  0  0  0  0
    6.1637    4.9687    0.0000 O   0  0  0  0  0  0  0  0  0  0  0  0
    3.5000    4.3301    0.0000 C   0  0  0  0  0  0  0  0  0  0  0  0
    3.0000    5.1962    0.0000 C   0  0  0  0  0  0  0  0  0  0  0  0
    2.0000    5.1962    0.0000 C   0  0  0  0  0  0  0  0  0  0  0  0
    1.5000    4.3301    0.0000 C   0  0  0  0  0  0  0  0  0  0  0  0
    2.0000    3.4641    0.0000 C   0  0  0  0  0  0  0  0  0  0  0  0
    3.0000    3.4641    0.0000 C   0  0  0  0  0  0  0  0  0  0  0  0
    1.5000    2.5981    0.0000 C   0  0  0  0  0  0  0  0  0  0  0  0
    0.5000    2.5981    0.0000 C   0  0  0  0  0  0  0  0  0  0  0  0
    0.0000    1.7321    0.0000 N   0  0  0  0  0  0  0  0  0  0  0  0
    0.5000    0.8660    0.0000 C   0  0  0  0  0  0  0  0  0  0  0  0
    1.5000    0.8660    0.0000 C   0  0  0  0  0  0  0  0  0  0  0  0
    2.0000    0.0000    0.0000 Cl  0  0  0  0  0  0  0  0  0  0  0  0
    2.0000    1.7321    0.0000 C   0  0  0  0  0  0  0  0  0  0  0  0
    5.0000    5.1962    0.0000 C   0  0  0  0  0  0  0  0  0  0  0  0
    5.8660    5.6962    0.0000 C   0  0  0  0  0  0  0  0  0  0  0  0
    5.0000    6.1962    0.0000 C   0  0  0  0  0  0  0  0  0  0  0  0
  1  2  1  0  0  0  0
  2  3  1  0  0  0  0
  3  4  1  0  0  0  0
  3  5  2  0  0  0  0
  5  6  1  0  0  0  0
  6  7  1  0  0  0  0
  7  2  1  0  0  0  0
  7  8  2  0  0  0  0
  6  9  1  0  0  0  0
  9 10  2  0  0  0  0
 10 11  1  0  0  0  0
 11 12  2  0  0  0  0
 12 13  1  0  0  0  0
 13 14  2  0  0  0  0
 14  9  1  0  0  0  0
 13 15  1  0  0  0  0
 15 16  2  0  0  0  0
 16 17  1  0  0  0  0
 17 18  2  0  0  0  0
 18 19  1  0  0  0  0
 19 20  1  0  0  0  0
 19 21  2  0  0  0  0
 21 15  1  0  0  0  0
  6 22  1  1  0  0  0
 22 23  1  0  0  0  0
 23 24  1  0  0  0  0
 24 22  1  0  0  0  0
M  CHG  1   5   1
M  END
> <ID>
L06

> <FEP+ dG (kcal/mol)>
-10.38

> <Experimental dG (kcal/mol)>
-10.33

> <System Name>
BACE

> <Similarity to L01 Reference (FCFP_4)>
0.74

> <SMILES>
CN1C(N)=[NH+][C@@](C1=O)(c2cccc(c2)c3cncc(Cl)c3)C4CC4

> <Net Charge of Ligand in FEP/MELD>
1

$$$$

  Mt7.00  01062308342D

 28 31  0  0  1  0  0  0  0  0999 V2000
    5.1160    7.7734    0.0000 C   0  0  0  0  0  0  0  0  0  0  0  0
    4.6160    6.9073    0.0000 O   0  0  0  0  0  0  0  0  0  0  0  0
    3.6160    6.9073    0.0000 C   0  0  0  0  0  0  0  0  0  0  0  0
    3.1160    7.7734    0.0000 C   0  0  0  0  0  0  0  0  0  0  0  0
    2.1160    7.7734    0.0000 C   0  0  0  0  0  0  0  0  0  0  0  0
    1.6160    6.9073    0.0000 C   0  0  0  0  0  0  0  0  0  0  0  0
    2.1160    6.0413    0.0000 C   0  0  0  0  0  0  0  0  0  0  0  0
    3.1160    6.0413    0.0000 C   0  0  0  0  0  0  0  0  0  0  0  0
    1.6160    5.1753    0.0000 C   0  0  0  0  0  0  0  0  0  0  0  0
    0.6160    5.1753    0.0000 C   0  0  0  0  0  0  0  0  0  0  0  0
    0.1160    4.3092    0.0000 C   0  0  0  0  0  0  0  0  0  0  0  0
    0.6160    3.4432    0.0000 C   0  0  0  0  0  0  0  0  0  0  0  0
    1.6160    3.4432    0.0000 C   0  0  0  0  0  0  0  0  0  0  0  0
    2.1160    4.3092    0.0000 C   0  0  0  0  0  0  0  0  0  0  0  0
    2.1160    2.5772    0.0000 C   0  0  3  0  0  0  0  0  0  0  0  0
    1.1215    2.4727    0.0000 N   0  3  0  0  0  0  0  0  0  0  0  0
    0.9135    1.4945    0.0000 C   0  0  0  0  0  0  0  0  0  0  0  0
    0.0000    1.0878    0.0000 N   0  0  0  0  0  0  0  0  0  0  0  0
    1.7796    0.9945    0.0000 N   0  0  0  0  0  0  0  0  0  0  0  0
    1.8841    0.0000    0.0000 C   0  0  0  0  0  0  0  0  0  0  0  0
    2.5227    1.6637    0.0000 C   0  0  0  0  0  0  0  0  0  0  0  0
    3.5009    1.4557    0.0000 O   0  0  0  0  0  0  0  0  0  0  0  0
    3.1160    2.5772    0.0000 C   0  0  0  0  0  0  0  0  0  0  0  0
    3.9820    2.0772    0.0000 C   0  0  0  0  0  0  0  0  0  0  0  0
    4.8480    2.5772    0.0000 C   0  0  0  0  0  0  0  0  0  0  0  0
    4.8480    3.5772    0.0000 C   0  0  0  0  0  0  0  0  0  0  0  0
    3.9820    4.0772    0.0000 C   0  0  0  0  0  0  0  0  0  0  0  0
    3.1160    3.5772    0.0000 C   0  0  0  0  0  0  0  0  0  0  0  0
  1  2  1  0  0  0  0
  2  3  1  0  0  0  0
  3  4  2  0  0  0  0
  4  5  1  0  0  0  0
  5  6  2  0  0  0  0
  6  7  1  0  0  0  0
  7  8  2  0  0  0  0
  8  3  1  0  0  0  0
  7  9  1  0  0  0  0
  9 10  2  0  0  0  0
 10 11  1  0  0  0  0
 11 12  2  0  0  0  0
 12 13  1  0  0  0  0
 13 14  2  0  0  0  0
 14  9  1  0  0  0  0
 13 15  1  0  0  0  0
 15 16  1  0  0  0  0
 16 17  2  0  0  0  0
 17 18  1  0  0  0  0
 17 19  1  0  0  0  0
 19 20  1  0  0  0  0
 19 21  1  0  0  0  0
 21 15  1  0  0  0  0
 21 22  2  0  0  0  0
 15 23  1  1  0  0  0
 23 24  2  0  0  0  0
 24 25  1  0  0  0  0
 25 26  2  0  0  0  0
 26 27  1  0  0  0  0
 27 28  2  0  0  0  0
 28 23  1  0  0  0  0
M  CHG  1  16   1
M  END
> <ID>
L07

> <FEP+ dG (kcal/mol)>
-10.22

> <Experimental dG (kcal/mol)>
-9.63

> <System Name>
BACE

> <Similarity to L01 Reference (FCFP_4)>
0.4

> <SMILES>
COc1cccc(c1)c2cccc(c2)[C@]3([NH+]=C(N)N(C)C3=O)c4ccccc4

> <Net Charge of Ligand in FEP/MELD>
1

$$$$

  Mt7.00  01062308342D

 29 32  0  0  1  0  0  0  0  0999 V2000
    6.1160    6.0413    0.0000 C   0  0  0  0  0  0  0  0  0  0  0  0
    5.1160    6.0413    0.0000 C   0  0  0  0  0  0  0  0  0  0  0  0
    4.6160    6.9073    0.0000 O   0  0  0  0  0  0  0  0  0  0  0  0
    3.6160    6.9073    0.0000 C   0  0  0  0  0  0  0  0  0  0  0  0
    3.1160    7.7734    0.0000 C   0  0  0  0  0  0  0  0  0  0  0  0
    2.1160    7.7734    0.0000 C   0  0  0  0  0  0  0  0  0  0  0  0
    1.6160    6.9073    0.0000 C   0  0  0  0  0  0  0  0  0  0  0  0
    2.1160    6.0413    0.0000 C   0  0  0  0  0  0  0  0  0  0  0  0
    3.1160    6.0413    0.0000 C   0  0  0  0  0  0  0  0  0  0  0  0
    1.6160    5.1753    0.0000 C   0  0  0  0  0  0  0  0  0  0  0  0
    0.6160    5.1753    0.0000 C   0  0  0  0  0  0  0  0  0  0  0  0
    0.1160    4.3092    0.0000 C   0  0  0  0  0  0  0  0  0  0  0  0
    0.6160    3.4432    0.0000 C   0  0  0  0  0  0  0  0  0  0  0  0
    1.6160    3.4432    0.0000 C   0  0  0  0  0  0  0  0  0  0  0  0
    2.1160    4.3092    0.0000 C   0  0  0  0  0  0  0  0  0  0  0  0
    2.1160    2.5772    0.0000 C   0  0  3  0  0  0  0  0  0  0  0  0
    1.1215    2.4727    0.0000 N   0  3  0  0  0  0  0  0  0  0  0  0
    0.9135    1.4945    0.0000 C   0  0  0  0  0  0  0  0  0  0  0  0
    0.0000    1.0878    0.0000 N   0  0  0  0  0  0  0  0  0  0  0  0
    1.7796    0.9945    0.0000 N   0  0  0  0  0  0  0  0  0  0  0  0
    1.8841    0.0000    0.0000 C   0  0  0  0  0  0  0  0  0  0  0  0
    2.5227    1.6637    0.0000 C   0  0  0  0  0  0  0  0  0  0  0  0
    3.5009    1.4557    0.0000 O   0  0  0  0  0  0  0  0  0  0  0  0
    3.1160    2.5772    0.0000 C   0  0  0  0  0  0  0  0  0  0  0  0
    3.9820    2.0772    0.0000 C   0  0  0  0  0  0  0  0  0  0  0  0
    4.8480    2.5772    0.0000 C   0  0  0  0  0  0  0  0  0  0  0  0
    4.8480    3.5772    0.0000 C   0  0  0  0  0  0  0  0  0  0  0  0
    3.9820    4.0772    0.0000 C   0  0  0  0  0  0  0  0  0  0  0  0
    3.1160    3.5772    0.0000 C   0  0  0  0  0  0  0  0  0  0  0  0
  1  2  1  0  0  0  0
  2  3  1  0  0  0  0
  3  4  1  0  0  0  0
  4  5  2  0  0  0  0
  5  6  1  0  0  0  0
  6  7  2  0  0  0  0
  7  8  1  0  0  0  0
  8  9  2  0  0  0  0
  9  4  1  0  0  0  0
  8 10  1  0  0  0  0
 10 11  2  0  0  0  0
 11 12  1  0  0  0  0
 12 13  2  0  0  0  0
 13 14  1  0  0  0  0
 14 15  2  0  0  0  0
 15 10  1  0  0  0  0
 14 16  1  0  0  0  0
 16 17  1  0  0  0  0
 17 18  2  0  0  0  0
 18 19  1  0  0  0  0
 18 20  1  0  0  0  0
 20 21  1  0  0  0  0
 20 22  1  0  0  0  0
 22 16  1  0  0  0  0
 22 23  2  0  0  0  0
 16 24  1  1  0  0  0
 24 25  2  0  0  0  0
 25 26  1  0  0  0  0
 26 27  2  0  0  0  0
 27 28  1  0  0  0  0
 28 29  2  0  0  0  0
 29 24  1  0  0  0  0
M  CHG  1  17   1
M  END
> <ID>
L08

> <FEP+ dG (kcal/mol)>
-10.16

> <Experimental dG (kcal/mol)>
-9.11

> <System Name>
BACE

> <Similarity to L01 Reference (FCFP_4)>
0.403509

> <SMILES>
CCOc1cccc(c1)c2cccc(c2)[C@]3([NH+]=C(N)N(C)C3=O)c4ccccc4

> <Net Charge of Ligand in FEP/MELD>
1

$$$$

  Mt7.00  01062308342D

 27 30  0  0  1  0  0  0  0  0999 V2000
    5.9461    1.0878    0.0000 C   0  0  0  0  0  0  0  0  0  0  0  0
    5.0326    1.4945    0.0000 N   0  0  0  0  0  0  0  0  0  0  0  0
    4.1665    0.9945    0.0000 C   0  0  0  0  0  0  0  0  0  0  0  0
    4.0620    0.0000    0.0000 N   0  0  0  0  0  0  0  0  0  0  0  0
    3.4234    1.6637    0.0000 N   0  3  0  0  0  0  0  0  0  0  0  0
    3.8301    2.5772    0.0000 C   0  0  3  0  0  0  0  0  0  0  0  0
    4.8246    2.4727    0.0000 C   0  0  0  0  0  0  0  0  0  0  0  0
    5.4938    3.2158    0.0000 O   0  0  0  0  0  0  0  0  0  0  0  0
    2.8301    2.5772    0.0000 C   0  0  0  0  0  0  0  0  0  0  0  0
    2.3301    3.4432    0.0000 C   0  0  0  0  0  0  0  0  0  0  0  0
    1.3301    3.4432    0.0000 C   0  0  0  0  0  0  0  0  0  0  0  0
    0.8301    2.5772    0.0000 C   0  0  0  0  0  0  0  0  0  0  0  0
    1.3301    1.7112    0.0000 C   0  0  0  0  0  0  0  0  0  0  0  0
    2.3301    1.7112    0.0000 C   0  0  0  0  0  0  0  0  0  0  0  0
    4.3301    3.4432    0.0000 C   0  0  0  0  0  0  0  0  0  0  0  0
    5.1962    3.9432    0.0000 C   0  0  0  0  0  0  0  0  0  0  0  0
    5.1962    4.9432    0.0000 C   0  0  0  0  0  0  0  0  0  0  0  0
    4.3301    5.4432    0.0000 C   0  0  0  0  0  0  0  0  0  0  0  0
    3.4641    4.9432    0.0000 C   0  0  0  0  0  0  0  0  0  0  0  0
    3.4641    3.9432    0.0000 C   0  0  0  0  0  0  0  0  0  0  0  0
    2.5981    5.4432    0.0000 C   0  0  0  0  0  0  0  0  0  0  0  0
    2.5981    6.4432    0.0000 C   0  0  0  0  0  0  0  0  0  0  0  0
    1.7321    6.9432    0.0000 N   0  0  0  0  0  0  0  0  0  0  0  0
    0.8660    6.4432    0.0000 C   0  0  0  0  0  0  0  0  0  0  0  0
    0.8660    5.4432    0.0000 C   0  0  0  0  0  0  0  0  0  0  0  0
    0.0000    4.9432    0.0000 Cl  0  0  0  0  0  0  0  0  0  0  0  0
    1.7321    4.9432    0.0000 C   0  0  0  0  0  0  0  0  0  0  0  0
  1  2  1  0  0  0  0
  2  3  1  0  0  0  0
  3  4  1  0  0  0  0
  3  5  2  0  0  0  0
  5  6  1  0  0  0  0
  6  7  1  0  0  0  0
  7  2  1  0  0  0  0
  7  8  2  0  0  0  0
  6  9  1  0  0  0  0
  9 10  2  0  0  0  0
 10 11  1  0  0  0  0
 11 12  2  0  0  0  0
 12 13  1  0  0  0  0
 13 14  2  0  0  0  0
 14  9  1  0  0  0  0
  6 15  1  6  0  0  0
 15 16  2  0  0  0  0
 16 17  1  0  0  0  0
 17 18  2  0  0  0  0
 18 19  1  0  0  0  0
 19 20  2  0  0  0  0
 20 15  1  0  0  0  0
 19 21  1  0  0  0  0
 21 22  2  0  0  0  0
 22 23  1  0  0  0  0
 23 24  2  0  0  0  0
 24 25  1  0  0  0  0
 25 26  1  0  0  0  0
 25 27  2  0  0  0  0
 27 21  1  0  0  0  0
M  CHG  1   5   1
M  END
> <ID>
L09

> <FEP+ dG (kcal/mol)>
-9.79

> <Experimental dG (kcal/mol)>
-10.08

> <System Name>
BACE

> <Similarity to L01 Reference (FCFP_4)>
0.509091

> <SMILES>
CN1C(N)=[NH+][C@](C1=O)(c2ccccc2)c3cccc(c3)c4cncc(Cl)c4

> <Net Charge of Ligand in FEP/MELD>
1

$$$$

  Mt7.00  01062308342D

 27 30  0  0  1  0  0  0  0  0999 V2000
    5.9461    1.0878    0.0000 C   0  0  0  0  0  0  0  0  0  0  0  0
    5.0326    1.4945    0.0000 N   0  0  0  0  0  0  0  0  0  0  0  0
    4.1665    0.9945    0.0000 C   0  0  0  0  0  0  0  0  0  0  0  0
    4.0620    0.0000    0.0000 N   0  0  0  0  0  0  0  0  0  0  0  0
    3.4234    1.6637    0.0000 N   0  3  0  0  0  0  0  0  0  0  0  0
    3.8301    2.5772    0.0000 C   0  0  3  0  0  0  0  0  0  0  0  0
    4.8246    2.4727    0.0000 C   0  0  0  0  0  0  0  0  0  0  0  0
    5.4938    3.2158    0.0000 O   0  0  0  0  0  0  0  0  0  0  0  0
    2.8301    2.5772    0.0000 C   0  0  0  0  0  0  0  0  0  0  0  0
    2.3301    3.4432    0.0000 C   0  0  0  0  0  0  0  0  0  0  0  0
    1.3301    3.4432    0.0000 C   0  0  0  0  0  0  0  0  0  0  0  0
    0.8301    2.5772    0.0000 C   0  0  0  0  0  0  0  0  0  0  0  0
    1.3301    1.7112    0.0000 N   0  0  0  0  0  0  0  0  0  0  0  0
    2.3301    1.7112    0.0000 C   0  0  0  0  0  0  0  0  0  0  0  0
    4.3301    3.4432    0.0000 C   0  0  0  0  0  0  0  0  0  0  0  0
    5.1962    3.9432    0.0000 C   0  0  0  0  0  0  0  0  0  0  0  0
    5.1962    4.9432    0.0000 C   0  0  0  0  0  0  0  0  0  0  0  0
    4.3301    5.4432    0.0000 C   0  0  0  0  0  0  0  0  0  0  0  0
    3.4641    4.9432    0.0000 C   0  0  0  0  0  0  0  0  0  0  0  0
    3.4641    3.9432    0.0000 C   0  0  0  0  0  0  0  0  0  0  0  0
    2.5981    5.4432    0.0000 C   0  0  0  0  0  0  0  0  0  0  0  0
    2.5981    6.4432    0.0000 C   0  0  0  0  0  0  0  0  0  0  0  0
    1.7321    6.9432    0.0000 C   0  0  0  0  0  0  0  0  0  0  0  0
    0.8660    6.4432    0.0000 C   0  0  0  0  0  0  0  0  0  0  0  0
    0.8660    5.4432    0.0000 C   0  0  0  0  0  0  0  0  0  0  0  0
    0.0000    4.9432    0.0000 Cl  0  0  0  0  0  0  0  0  0  0  0  0
    1.7321    4.9432    0.0000 C   0  0  0  0  0  0  0  0  0  0  0  0
  1  2  1  0  0  0  0
  2  3  1  0  0  0  0
  3  4  1  0  0  0  0
  3  5  2  0  0  0  0
  5  6  1  0  0  0  0
  6  7  1  0  0  0  0
  7  2  1  0  0  0  0
  7  8  2  0  0  0  0
  6  9  1  0  0  0  0
  9 10  2  0  0  0  0
 10 11  1  0  0  0  0
 11 12  2  0  0  0  0
 12 13  1  0  0  0  0
 13 14  2  0  0  0  0
 14  9  1  0  0  0  0
  6 15  1  6  0  0  0
 15 16  2  0  0  0  0
 16 17  1  0  0  0  0
 17 18  2  0  0  0  0
 18 19  1  0  0  0  0
 19 20  2  0  0  0  0
 20 15  1  0  0  0  0
 19 21  1  0  0  0  0
 21 22  2  0  0  0  0
 22 23  1  0  0  0  0
 23 24  2  0  0  0  0
 24 25  1  0  0  0  0
 25 26  1  0  0  0  0
 25 27  2  0  0  0  0
 27 21  1  0  0  0  0
M  CHG  1   5   1
M  END
> <ID>
L10

> <FEP+ dG (kcal/mol)>
-9.4

> <Experimental dG (kcal/mol)>
-9.7

> <System Name>
BACE

> <Similarity to L01 Reference (FCFP_4)>
0.465517

> <SMILES>
CN1C(N)=[NH+][C@](C1=O)(c2cccnc2)c3cccc(c3)c4cccc(Cl)c4

> <Net Charge of Ligand in FEP/MELD>
1

$$$$

  Mt7.00  01062308342D

 22 24  0  0  1  0  0  0  0  0999 V2000
    6.6160    2.8407    0.0000 C   0  0  0  0  0  0  0  0  0  0  0  0
    5.7024    3.2475    0.0000 N   0  0  0  0  0  0  0  0  0  0  0  0
    4.8364    2.7475    0.0000 C   0  0  0  0  0  0  0  0  0  0  0  0
    4.7319    1.7529    0.0000 N   0  0  0  0  0  0  0  0  0  0  0  0
    4.0933    3.4166    0.0000 N   0  3  0  0  0  0  0  0  0  0  0  0
    4.5000    4.3301    0.0000 C   0  0  3  0  0  0  0  0  0  0  0  0
    5.0000    5.1962    0.0000 C   0  0  0  0  0  0  0  0  0  0  0  0
    5.4945    4.2256    0.0000 C   0  0  0  0  0  0  0  0  0  0  0  0
    6.1637    4.9687    0.0000 O   0  0  0  0  0  0  0  0  0  0  0  0
    3.5000    4.3301    0.0000 C   0  0  0  0  0  0  0  0  0  0  0  0
    3.0000    5.1962    0.0000 C   0  0  0  0  0  0  0  0  0  0  0  0
    2.0000    5.1962    0.0000 C   0  0  0  0  0  0  0  0  0  0  0  0
    1.5000    4.3301    0.0000 C   0  0  0  0  0  0  0  0  0  0  0  0
    2.0000    3.4641    0.0000 C   0  0  0  0  0  0  0  0  0  0  0  0
    3.0000    3.4641    0.0000 C   0  0  0  0  0  0  0  0  0  0  0  0
    1.5000    2.5981    0.0000 C   0  0  0  0  0  0  0  0  0  0  0  0
    0.5000    2.5981    0.0000 C   0  0  0  0  0  0  0  0  0  0  0  0
    0.0000    1.7321    0.0000 C   0  0  0  0  0  0  0  0  0  0  0  0
    0.5000    0.8660    0.0000 C   0  0  0  0  0  0  0  0  0  0  0  0
    1.5000    0.8660    0.0000 C   0  0  0  0  0  0  0  0  0  0  0  0
    2.0000    0.0000    0.0000 Cl  0  0  0  0  0  0  0  0  0  0  0  0
    2.0000    1.7321    0.0000 C   0  0  0  0  0  0  0  0  0  0  0  0
  1  2  1  0  0  0  0
  2  3  1  0  0  0  0
  3  4  1  0  0  0  0
  3  5  2  0  0  0  0
  5  6  1  0  0  0  0
  6  7  1  1  0  0  0
  6  8  1  0  0  0  0
  8  2  1  0  0  0  0
  8  9  2  0  0  0  0
  6 10  1  0  0  0  0
 10 11  2  0  0  0  0
 11 12  1  0  0  0  0
 12 13  2  0  0  0  0
 13 14  1  0  0  0  0
 14 15  2  0  0  0  0
 15 10  1  0  0  0  0
 14 16  1  0  0  0  0
 16 17  2  0  0  0  0
 17 18  1  0  0  0  0
 18 19  2  0  0  0  0
 19 20  1  0  0  0  0
 20 21  1  0  0  0  0
 20 22  2  0  0  0  0
 22 16  1  0  0  0  0
M  CHG  1   5   1
M  END
> <ID>
L11

> <FEP+ dG (kcal/mol)>
-8.83

> <Experimental dG (kcal/mol)>
-8.84

> <System Name>
BACE

> <Similarity to L01 Reference (FCFP_4)>
0.529412

> <SMILES>
CN1C(N)=[NH+][C@@](C)(C1=O)c2cccc(c2)c3cccc(Cl)c3

> <Net Charge of Ligand in FEP/MELD>
1

$$$$

  Mt7.00  01062308342D

 27 30  0  0  1  0  0  0  0  0999 V2000
    6.6160    2.8407    0.0000 C   0  0  0  0  0  0  0  0  0  0  0  0
    5.7024    3.2475    0.0000 N   0  0  0  0  0  0  0  0  0  0  0  0
    4.8364    2.7475    0.0000 C   0  0  0  0  0  0  0  0  0  0  0  0
    4.7319    1.7529    0.0000 N   0  0  0  0  0  0  0  0  0  0  0  0
    4.0933    3.4166    0.0000 N   0  3  0  0  0  0  0  0  0  0  0  0
    4.5000    4.3301    0.0000 C   0  0  3  0  0  0  0  0  0  0  0  0
    5.4945    4.2256    0.0000 C   0  0  0  0  0  0  0  0  0  0  0  0
    6.1637    4.9687    0.0000 O   0  0  0  0  0  0  0  0  0  0  0  0
    3.5000    4.3301    0.0000 C   0  0  0  0  0  0  0  0  0  0  0  0
    3.0000    5.1962    0.0000 C   0  0  0  0  0  0  0  0  0  0  0  0
    2.0000    5.1962    0.0000 C   0  0  0  0  0  0  0  0  0  0  0  0
    1.5000    4.3301    0.0000 C   0  0  0  0  0  0  0  0  0  0  0  0
    2.0000    3.4641    0.0000 C   0  0  0  0  0  0  0  0  0  0  0  0
    3.0000    3.4641    0.0000 C   0  0  0  0  0  0  0  0  0  0  0  0
    1.5000    2.5981    0.0000 C   0  0  0  0  0  0  0  0  0  0  0  0
    0.5000    2.5981    0.0000 C   0  0  0  0  0  0  0  0  0  0  0  0
    0.0000    1.7321    0.0000 C   0  0  0  0  0  0  0  0  0  0  0  0
    0.5000    0.8660    0.0000 C   0  0  0  0  0  0  0  0  0  0  0  0
    1.5000    0.8660    0.0000 C   0  0  0  0  0  0  0  0  0  0  0  0
    2.0000    0.0000    0.0000 Cl  0  0  0  0  0  0  0  0  0  0  0  0
    2.0000    1.7321    0.0000 C   0  0  0  0  0  0  0  0  0  0  0  0
    5.0000    5.1962    0.0000 C   0  0  0  0  0  0  0  0  0  0  0  0
    5.8660    5.6962    0.0000 C   0  0  0  0  0  0  0  0  0  0  0  0
    5.8660    6.6962    0.0000 C   0  0  0  0  0  0  0  0  0  0  0  0
    5.0000    7.1962    0.0000 C   0  0  0  0  0  0  0  0  0  0  0  0
    4.1340    6.6962    0.0000 C   0  0  0  0  0  0  0  0  0  0  0  0
    4.1340    5.6962    0.0000 N   0  0  0  0  0  0  0  0  0  0  0  0
  1  2  1  0  0  0  0
  2  3  1  0  0  0  0
  3  4  1  0  0  0  0
  3  5  2  0  0  0  0
  5  6  1  0  0  0  0
  6  7  1  0  0  0  0
  7  2  1  0  0  0  0
  7  8  2  0  0  0  0
  6  9  1  0  0  0  0
  9 10  2  0  0  0  0
 10 11  1  0  0  0  0
 11 12  2  0  0  0  0
 12 13  1  0  0  0  0
 13 14  2  0  0  0  0
 14  9  1  0  0  0  0
 13 15  1  0  0  0  0
 15 16  2  0  0  0  0
 16 17  1  0  0  0  0
 17 18  2  0  0  0  0
 18 19  1  0  0  0  0
 19 20  1  0  0  0  0
 19 21  2  0  0  0  0
 21 15  1  0  0  0  0
  6 22  1  1  0  0  0
 22 23  2  0  0  0  0
 23 24  1  0  0  0  0
 24 25  2  0  0  0  0
 25 26  1  0  0  0  0
 26 27  2  0  0  0  0
 27 22  1  0  0  0  0
M  CHG  1   5   1
M  END
> <ID>
L12

> <FEP+ dG (kcal/mol)>
-8.74

> <Experimental dG (kcal/mol)>
-8.73

> <System Name>
BACE

> <Similarity to L01 Reference (FCFP_4)>
0.409836

> <SMILES>
CN1C(N)=[NH+][C@@](C1=O)(c2cccc(c2)c3cccc(Cl)c3)c4ccccn4

> <Net Charge of Ligand in FEP/MELD>
1

$$$$

  Mt7.00  01062308342D

 23 26  0  0  1  0  0  0  0  0999 V2000
    6.6160    1.9747    0.0000 C   0  0  0  0  0  0  0  0  0  0  0  0
    5.7024    2.3814    0.0000 N   0  0  0  0  0  0  0  0  0  0  0  0
    4.8364    1.8814    0.0000 C   0  0  0  0  0  0  0  0  0  0  0  0
    4.7319    0.8869    0.0000 N   0  0  0  0  0  0  0  0  0  0  0  0
    4.0933    2.5506    0.0000 N   0  3  0  0  0  0  0  0  0  0  0  0
    4.5000    3.4641    0.0000 C   0  0  3  0  0  0  0  0  0  0  0  0
    5.4945    3.3596    0.0000 C   0  0  0  0  0  0  0  0  0  0  0  0
    6.1637    4.1027    0.0000 O   0  0  0  0  0  0  0  0  0  0  0  0
    3.5000    3.4641    0.0000 C   0  0  0  0  0  0  0  0  0  0  0  0
    3.0000    4.3301    0.0000 C   0  0  0  0  0  0  0  0  0  0  0  0
    2.0000    4.3301    0.0000 C   0  0  0  0  0  0  0  0  0  0  0  0
    1.5000    3.4641    0.0000 C   0  0  0  0  0  0  0  0  0  0  0  0
    2.0000    2.5981    0.0000 C   0  0  0  0  0  0  0  0  0  0  0  0
    3.0000    2.5981    0.0000 C   0  0  0  0  0  0  0  0  0  0  0  0
    1.5000    1.7321    0.0000 C   0  0  0  0  0  0  0  0  0  0  0  0
    0.5000    1.7321    0.0000 C   0  0  0  0  0  0  0  0  0  0  0  0
    0.0000    0.8660    0.0000 C   0  0  0  0  0  0  0  0  0  0  0  0
    0.5000    0.0000    0.0000 C   0  0  0  0  0  0  0  0  0  0  0  0
    1.5000    0.0000    0.0000 N   0  0  0  0  0  0  0  0  0  0  0  0
    2.0000    0.8660    0.0000 C   0  0  0  0  0  0  0  0  0  0  0  0
    5.0000    4.3301    0.0000 C   0  0  0  0  0  0  0  0  0  0  0  0
    5.8660    4.8301    0.0000 C   0  0  0  0  0  0  0  0  0  0  0  0
    5.0000    5.3301    0.0000 C   0  0  0  0  0  0  0  0  0  0  0  0
  1  2  1  0  0  0  0
  2  3  1  0  0  0  0
  3  4  1  0  0  0  0
  3  5  2  0  0  0  0
  5  6  1  0  0  0  0
  6  7  1  0  0  0  0
  7  2  1  0  0  0  0
  7  8  2  0  0  0  0
  6  9  1  0  0  0  0
  9 10  2  0  0  0  0
 10 11  1  0  0  0  0
 11 12  2  0  0  0  0
 12 13  1  0  0  0  0
 13 14  2  0  0  0  0
 14  9  1  0  0  0  0
 13 15  1  0  0  0  0
 15 16  2  0  0  0  0
 16 17  1  0  0  0  0
 17 18  2  0  0  0  0
 18 19  1  0  0  0  0
 19 20  2  0  0  0  0
 20 15  1  0  0  0  0
  6 21  1  1  0  0  0
 21 22  1  0  0  0  0
 22 23  1  0  0  0  0
 23 21  1  0  0  0  0
M  CHG  1   5   1
M  END
> <ID>
L13

> <FEP+ dG (kcal/mol)>
-7.93

> <Experimental dG (kcal/mol)>
-9.42

> <System Name>
BACE

> <Similarity to L01 Reference (FCFP_4)>
0.804348

> <SMILES>
CN1C(N)=[NH+][C@@](C1=O)(c2cccc(c2)c3cccnc3)C4CC4

> <Net Charge of Ligand in FEP/MELD>
1

$$$$

  Mt7.00  01062308342D

 28 31  0  0  1  0  0  0  0  0999 V2000
    8.8479    4.9641    0.0000 C   0  0  0  0  0  0  0  0  0  0  0  0
    8.3479    4.0981    0.0000 O   0  0  0  0  0  0  0  0  0  0  0  0
    7.3479    4.0981    0.0000 C   0  0  0  0  0  0  0  0  0  0  0  0
    6.8479    4.9641    0.0000 C   0  0  0  0  0  0  0  0  0  0  0  0
    5.8479    4.9641    0.0000 C   0  0  0  0  0  0  0  0  0  0  0  0
    5.3479    4.0981    0.0000 C   0  0  0  0  0  0  0  0  0  0  0  0
    5.8479    3.2321    0.0000 C   0  0  0  0  0  0  0  0  0  0  0  0
    6.8479    3.2321    0.0000 C   0  0  0  0  0  0  0  0  0  0  0  0
    4.3479    4.0981    0.0000 C   0  0  0  0  0  0  0  0  0  0  0  0
    3.8479    4.9641    0.0000 C   0  0  0  0  0  0  0  0  0  0  0  0
    2.8479    4.9641    0.0000 C   0  0  0  0  0  0  0  0  0  0  0  0
    2.3479    4.0981    0.0000 C   0  0  0  0  0  0  0  0  0  0  0  0
    2.8479    3.2321    0.0000 C   0  0  0  0  0  0  0  0  0  0  0  0
    3.8479    3.2321    0.0000 C   0  0  0  0  0  0  0  0  0  0  0  0
    2.3479    2.3660    0.0000 C   0  0  3  0  0  0  0  0  0  0  0  0
    1.7601    3.1750    0.0000 N   0  3  0  0  0  0  0  0  0  0  0  0
    0.8090    2.8660    0.0000 C   0  0  0  0  0  0  0  0  0  0  0  0
    0.0000    3.4538    0.0000 N   0  0  0  0  0  0  0  0  0  0  0  0
    0.8090    1.8660    0.0000 N   0  0  0  0  0  0  0  0  0  0  0  0
    0.0000    1.2782    0.0000 C   0  0  0  0  0  0  0  0  0  0  0  0
    1.7601    1.5570    0.0000 C   0  0  0  0  0  0  0  0  0  0  0  0
    2.0691    0.6060    0.0000 O   0  0  0  0  0  0  0  0  0  0  0  0
    2.8479    1.5000    0.0000 C   0  0  0  0  0  0  0  0  0  0  0  0
    2.8479    0.5000    0.0000 C   0  0  0  0  0  0  0  0  0  0  0  0
    3.7139    0.0000    0.0000 C   0  0  0  0  0  0  0  0  0  0  0  0
    4.5799    0.5000    0.0000 C   0  0  0  0  0  0  0  0  0  0  0  0
    4.5799    1.5000    0.0000 C   0  0  0  0  0  0  0  0  0  0  0  0
    3.7139    2.0000    0.0000 C   0  0  0  0  0  0  0  0  0  0  0  0
  1  2  1  0  0  0  0
  2  3  1  0  0  0  0
  3  4  2  0  0  0  0
  4  5  1  0  0  0  0
  5  6  2  0  0  0  0
  6  7  1  0  0  0  0
  7  8  2  0  0  0  0
  8  3  1  0  0  0  0
  6  9  1  0  0  0  0
  9 10  2  0  0  0  0
 10 11  1  0  0  0  0
 11 12  2  0  0  0  0
 12 13  1  0  0  0  0
 13 14  2  0  0  0  0
 14  9  1  0  0  0  0
 13 15  1  0  0  0  0
 15 16  1  0  0  0  0
 16 17  2  0  0  0  0
 17 18  1  0  0  0  0
 17 19  1  0  0  0  0
 19 20  1  0  0  0  0
 19 21  1  0  0  0  0
 21 15  1  0  0  0  0
 21 22  2  0  0  0  0
 15 23  1  1  0  0  0
 23 24  2  0  0  0  0
 24 25  1  0  0  0  0
 25 26  2  0  0  0  0
 26 27  1  0  0  0  0
 27 28  2  0  0  0  0
 28 23  1  0  0  0  0
M  CHG  1  16   1
M  END
> <ID>
L14

> <FEP+ dG (kcal/mol)>
-7.52

> <Experimental dG (kcal/mol)>
-7.85

> <System Name>
BACE

> <Similarity to L01 Reference (FCFP_4)>
0.407407

> <SMILES>
COc1ccc(cc1)c2cccc(c2)[C@]3([NH+]=C(N)N(C)C3=O)c4ccccc4

> <Net Charge of Ligand in FEP/MELD>
1

$$$$

  Mt7.00  01062308342D

 26 29  0  0  1  0  0  0  0  0999 V2000
    5.1160    1.0878    0.0000 C   0  0  0  0  0  0  0  0  0  0  0  0
    4.2024    1.4945    0.0000 N   0  0  0  0  0  0  0  0  0  0  0  0
    3.3364    0.9945    0.0000 C   0  0  0  0  0  0  0  0  0  0  0  0
    3.2319    0.0000    0.0000 N   0  0  0  0  0  0  0  0  0  0  0  0
    2.5933    1.6637    0.0000 N   0  3  0  0  0  0  0  0  0  0  0  0
    3.0000    2.5772    0.0000 C   0  0  3  0  0  0  0  0  0  0  0  0
    3.9945    2.4727    0.0000 C   0  0  0  0  0  0  0  0  0  0  0  0
    4.6637    3.2158    0.0000 O   0  0  0  0  0  0  0  0  0  0  0  0
    2.0000    2.5772    0.0000 C   0  0  0  0  0  0  0  0  0  0  0  0
    1.5000    3.4432    0.0000 C   0  0  0  0  0  0  0  0  0  0  0  0
    0.5000    3.4432    0.0000 C   0  0  0  0  0  0  0  0  0  0  0  0
    0.0000    2.5772    0.0000 C   0  0  0  0  0  0  0  0  0  0  0  0
    0.5000    1.7112    0.0000 C   0  0  0  0  0  0  0  0  0  0  0  0
    1.5000    1.7112    0.0000 C   0  0  0  0  0  0  0  0  0  0  0  0
    3.5000    3.4432    0.0000 C   0  0  0  0  0  0  0  0  0  0  0  0
    4.3660    3.9432    0.0000 C   0  0  0  0  0  0  0  0  0  0  0  0
    4.3660    4.9432    0.0000 C   0  0  0  0  0  0  0  0  0  0  0  0
    3.5000    5.4432    0.0000 C   0  0  0  0  0  0  0  0  0  0  0  0
    2.6340    4.9432    0.0000 C   0  0  0  0  0  0  0  0  0  0  0  0
    2.6340    3.9432    0.0000 C   0  0  0  0  0  0  0  0  0  0  0  0
    1.7679    5.4432    0.0000 C   0  0  0  0  0  0  0  0  0  0  0  0
    1.7679    6.4432    0.0000 C   0  0  0  0  0  0  0  0  0  0  0  0
    0.9019    6.9432    0.0000 C   0  0  0  0  0  0  0  0  0  0  0  0
    0.0359    6.4432    0.0000 N   0  0  0  0  0  0  0  0  0  0  0  0
    0.0359    5.4432    0.0000 C   0  0  0  0  0  0  0  0  0  0  0  0
    0.9019    4.9432    0.0000 C   0  0  0  0  0  0  0  0  0  0  0  0
  1  2  1  0  0  0  0
  2  3  1  0  0  0  0
  3  4  1  0  0  0  0
  3  5  2  0  0  0  0
  5  6  1  0  0  0  0
  6  7  1  0  0  0  0
  7  2  1  0  0  0  0
  7  8  2  0  0  0  0
  6  9  1  0  0  0  0
  9 10  2  0  0  0  0
 10 11  1  0  0  0  0
 11 12  2  0  0  0  0
 12 13  1  0  0  0  0
 13 14  2  0  0  0  0
 14  9  1  0  0  0  0
  6 15  1  6  0  0  0
 15 16  2  0  0  0  0
 16 17  1  0  0  0  0
 17 18  2  0  0  0  0
 18 19  1  0  0  0  0
 19 20  2  0  0  0  0
 20 15  1  0  0  0  0
 19 21  1  0  0  0  0
 21 22  2  0  0  0  0
 22 23  1  0  0  0  0
 23 24  2  0  0  0  0
 24 25  1  0  0  0  0
 25 26  2  0  0  0  0
 26 21  1  0  0  0  0
M  CHG  1   5   1
M  END
> <ID>
L15

> <FEP+ dG (kcal/mol)>
-7.41

> <Experimental dG (kcal/mol)>
-7.85

> <System Name>
BACE

> <Similarity to L01 Reference (FCFP_4)>
0.509804

> <SMILES>
CN1C(N)=[NH+][C@](C1=O)(c2ccccc2)c3cccc(c3)c4ccncc4

> <Net Charge of Ligand in FEP/MELD>
1

$$$$

  Mt7.00  01062308342D

 26 29  0  0  1  0  0  0  0  0999 V2000
    5.1160    1.0878    0.0000 C   0  0  0  0  0  0  0  0  0  0  0  0
    4.2024    1.4945    0.0000 N   0  0  0  0  0  0  0  0  0  0  0  0
    3.3364    0.9945    0.0000 C   0  0  0  0  0  0  0  0  0  0  0  0
    3.2319    0.0000    0.0000 N   0  0  0  0  0  0  0  0  0  0  0  0
    2.5933    1.6637    0.0000 N   0  3  0  0  0  0  0  0  0  0  0  0
    3.0000    2.5772    0.0000 C   0  0  3  0  0  0  0  0  0  0  0  0
    3.9945    2.4727    0.0000 C   0  0  0  0  0  0  0  0  0  0  0  0
    4.6637    3.2158    0.0000 O   0  0  0  0  0  0  0  0  0  0  0  0
    2.0000    2.5772    0.0000 C   0  0  0  0  0  0  0  0  0  0  0  0
    1.5000    3.4432    0.0000 C   0  0  0  0  0  0  0  0  0  0  0  0
    0.5000    3.4432    0.0000 C   0  0  0  0  0  0  0  0  0  0  0  0
    0.0000    2.5772    0.0000 C   0  0  0  0  0  0  0  0  0  0  0  0
    0.5000    1.7112    0.0000 C   0  0  0  0  0  0  0  0  0  0  0  0
    1.5000    1.7112    0.0000 C   0  0  0  0  0  0  0  0  0  0  0  0
    3.5000    3.4432    0.0000 C   0  0  0  0  0  0  0  0  0  0  0  0
    4.3660    3.9432    0.0000 C   0  0  0  0  0  0  0  0  0  0  0  0
    4.3660    4.9432    0.0000 C   0  0  0  0  0  0  0  0  0  0  0  0
    3.5000    5.4432    0.0000 C   0  0  0  0  0  0  0  0  0  0  0  0
    2.6340    4.9432    0.0000 C   0  0  0  0  0  0  0  0  0  0  0  0
    2.6340    3.9432    0.0000 C   0  0  0  0  0  0  0  0  0  0  0  0
    1.7679    5.4432    0.0000 C   0  0  0  0  0  0  0  0  0  0  0  0
    1.7679    6.4432    0.0000 C   0  0  0  0  0  0  0  0  0  0  0  0
    0.9019    6.9432    0.0000 N   0  0  0  0  0  0  0  0  0  0  0  0
    0.0359    6.4432    0.0000 C   0  0  0  0  0  0  0  0  0  0  0  0
    0.0359    5.4432    0.0000 C   0  0  0  0  0  0  0  0  0  0  0  0
    0.9019    4.9432    0.0000 N   0  0  0  0  0  0  0  0  0  0  0  0
  1  2  1  0  0  0  0
  2  3  1  0  0  0  0
  3  4  1  0  0  0  0
  3  5  2  0  0  0  0
  5  6  1  0  0  0  0
  6  7  1  0  0  0  0
  7  2  1  0  0  0  0
  7  8  2  0  0  0  0
  6  9  1  0  0  0  0
  9 10  2  0  0  0  0
 10 11  1  0  0  0  0
 11 12  2  0  0  0  0
 12 13  1  0  0  0  0
 13 14  2  0  0  0  0
 14  9  1  0  0  0  0
  6 15  1  6  0  0  0
 15 16  2  0  0  0  0
 16 17  1  0  0  0  0
 17 18  2  0  0  0  0
 18 19  1  0  0  0  0
 19 20  2  0  0  0  0
 20 15  1  0  0  0  0
 19 21  1  0  0  0  0
 21 22  2  0  0  0  0
 22 23  1  0  0  0  0
 23 24  2  0  0  0  0
 24 25  1  0  0  0  0
 25 26  2  0  0  0  0
 26 21  1  0  0  0  0
M  CHG  1   5   1
M  END
> <ID>
L16

> <FEP+ dG (kcal/mol)>
-7.29

> <Experimental dG (kcal/mol)>
-9.34

> <System Name>
BACE

> <Similarity to L01 Reference (FCFP_4)>
0.454545

> <SMILES>
CN1C(N)=[NH+][C@](C1=O)(c2ccccc2)c3cccc(c3)c4cnccn4

> <Net Charge of Ligand in FEP/MELD>
1

$$$$

  Mt7.00  01062308342D

 26 29  0  0  1  0  0  0  0  0999 V2000
    5.1160    1.0878    0.0000 C   0  0  0  0  0  0  0  0  0  0  0  0
    4.2024    1.4945    0.0000 N   0  0  0  0  0  0  0  0  0  0  0  0
    3.3364    0.9945    0.0000 C   0  0  0  0  0  0  0  0  0  0  0  0
    3.2319    0.0000    0.0000 N   0  0  0  0  0  0  0  0  0  0  0  0
    2.5933    1.6637    0.0000 N   0  3  0  0  0  0  0  0  0  0  0  0
    3.0000    2.5772    0.0000 C   0  0  3  0  0  0  0  0  0  0  0  0
    3.9945    2.4727    0.0000 C   0  0  0  0  0  0  0  0  0  0  0  0
    4.6637    3.2158    0.0000 O   0  0  0  0  0  0  0  0  0  0  0  0
    2.0000    2.5772    0.0000 C   0  0  0  0  0  0  0  0  0  0  0  0
    1.5000    3.4432    0.0000 C   0  0  0  0  0  0  0  0  0  0  0  0
    0.5000    3.4432    0.0000 C   0  0  0  0  0  0  0  0  0  0  0  0
    0.0000    2.5772    0.0000 C   0  0  0  0  0  0  0  0  0  0  0  0
    0.5000    1.7112    0.0000 C   0  0  0  0  0  0  0  0  0  0  0  0
    1.5000    1.7112    0.0000 C   0  0  0  0  0  0  0  0  0  0  0  0
    3.5000    3.4432    0.0000 C   0  0  0  0  0  0  0  0  0  0  0  0
    4.3660    3.9432    0.0000 C   0  0  0  0  0  0  0  0  0  0  0  0
    4.3660    4.9432    0.0000 C   0  0  0  0  0  0  0  0  0  0  0  0
    3.5000    5.4432    0.0000 C   0  0  0  0  0  0  0  0  0  0  0  0
    2.6340    4.9432    0.0000 C   0  0  0  0  0  0  0  0  0  0  0  0
    2.6340    3.9432    0.0000 C   0  0  0  0  0  0  0  0  0  0  0  0
    1.7679    5.4432    0.0000 C   0  0  0  0  0  0  0  0  0  0  0  0
    1.7679    6.4432    0.0000 C   0  0  0  0  0  0  0  0  0  0  0  0
    0.9019    6.9432    0.0000 C   0  0  0  0  0  0  0  0  0  0  0  0
    0.0359    6.4432    0.0000 C   0  0  0  0  0  0  0  0  0  0  0  0
    0.0359    5.4432    0.0000 C   0  0  0  0  0  0  0  0  0  0  0  0
    0.9019    4.9432    0.0000 N   0  0  0  0  0  0  0  0  0  0  0  0
  1  2  1  0  0  0  0
  2  3  1  0  0  0  0
  3  4  1  0  0  0  0
  3  5  2  0  0  0  0
  5  6  1  0  0  0  0
  6  7  1  0  0  0  0
  7  2  1  0  0  0  0
  7  8  2  0  0  0  0
  6  9  1  0  0  0  0
  9 10  2  0  0  0  0
 10 11  1  0  0  0  0
 11 12  2  0  0  0  0
 12 13  1  0  0  0  0
 13 14  2  0  0  0  0
 14  9  1  0  0  0  0
  6 15  1  6  0  0  0
 15 16  2  0  0  0  0
 16 17  1  0  0  0  0
 17 18  2  0  0  0  0
 18 19  1  0  0  0  0
 19 20  2  0  0  0  0
 20 15  1  0  0  0  0
 19 21  1  0  0  0  0
 21 22  2  0  0  0  0
 22 23  1  0  0  0  0
 23 24  2  0  0  0  0
 24 25  1  0  0  0  0
 25 26  2  0  0  0  0
 26 21  1  0  0  0  0
M  CHG  1   5   1
M  END
> <ID>
L17

> <FEP+ dG (kcal/mol)>
-7.02

> <Experimental dG (kcal/mol)>
-8.26

> <System Name>
BACE

> <Similarity to L01 Reference (FCFP_4)>
0.428571

> <SMILES>
CN1C(N)=[NH+][C@](C1=O)(c2ccccc2)c3cccc(c3)c4ccccn4

> <Net Charge of Ligand in FEP/MELD>
1

$$$$

  Mt7.00  01062308342D

 27 30  0  0  1  0  0  0  0  0999 V2000
    6.6160    2.8407    0.0000 C   0  0  0  0  0  0  0  0  0  0  0  0
    5.7024    3.2475    0.0000 N   0  0  0  0  0  0  0  0  0  0  0  0
    4.8364    2.7475    0.0000 C   0  0  0  0  0  0  0  0  0  0  0  0
    4.7319    1.7529    0.0000 N   0  0  0  0  0  0  0  0  0  0  0  0
    4.0933    3.4166    0.0000 N   0  3  0  0  0  0  0  0  0  0  0  0
    4.5000    4.3301    0.0000 C   0  0  3  0  0  0  0  0  0  0  0  0
    5.4945    4.2256    0.0000 C   0  0  0  0  0  0  0  0  0  0  0  0
    6.1637    4.9687    0.0000 O   0  0  0  0  0  0  0  0  0  0  0  0
    3.5000    4.3301    0.0000 C   0  0  0  0  0  0  0  0  0  0  0  0
    3.0000    5.1962    0.0000 C   0  0  0  0  0  0  0  0  0  0  0  0
    2.0000    5.1962    0.0000 C   0  0  0  0  0  0  0  0  0  0  0  0
    1.5000    4.3301    0.0000 C   0  0  0  0  0  0  0  0  0  0  0  0
    2.0000    3.4641    0.0000 C   0  0  0  0  0  0  0  0  0  0  0  0
    3.0000    3.4641    0.0000 C   0  0  0  0  0  0  0  0  0  0  0  0
    1.5000    2.5981    0.0000 C   0  0  0  0  0  0  0  0  0  0  0  0
    0.5000    2.5981    0.0000 C   0  0  0  0  0  0  0  0  0  0  0  0
    0.0000    1.7321    0.0000 C   0  0  0  0  0  0  0  0  0  0  0  0
    0.5000    0.8660    0.0000 C   0  0  0  0  0  0  0  0  0  0  0  0
    1.5000    0.8660    0.0000 C   0  0  0  0  0  0  0  0  0  0  0  0
    2.0000    0.0000    0.0000 Cl  0  0  0  0  0  0  0  0  0  0  0  0
    2.0000    1.7321    0.0000 C   0  0  0  0  0  0  0  0  0  0  0  0
    5.0000    5.1962    0.0000 C   0  0  0  0  0  0  0  0  0  0  0  0
    5.8660    5.6962    0.0000 N   0  0  0  0  0  0  0  0  0  0  0  0
    5.8660    6.6962    0.0000 C   0  0  0  0  0  0  0  0  0  0  0  0
    5.0000    7.1962    0.0000 C   0  0  0  0  0  0  0  0  0  0  0  0
    4.1340    6.6962    0.0000 C   0  0  0  0  0  0  0  0  0  0  0  0
    4.1340    5.6962    0.0000 N   0  0  0  0  0  0  0  0  0  0  0  0
  1  2  1  0  0  0  0
  2  3  1  0  0  0  0
  3  4  1  0  0  0  0
  3  5  2  0  0  0  0
  5  6  1  0  0  0  0
  6  7  1  0  0  0  0
  7  2  1  0  0  0  0
  7  8  2  0  0  0  0
  6  9  1  0  0  0  0
  9 10  2  0  0  0  0
 10 11  1  0  0  0  0
 11 12  2  0  0  0  0
 12 13  1  0  0  0  0
 13 14  2  0  0  0  0
 14  9  1  0  0  0  0
 13 15  1  0  0  0  0
 15 16  2  0  0  0  0
 16 17  1  0  0  0  0
 17 18  2  0  0  0  0
 18 19  1  0  0  0  0
 19 20  1  0  0  0  0
 19 21  2  0  0  0  0
 21 15  1  0  0  0  0
  6 22  1  1  0  0  0
 22 23  2  0  0  0  0
 23 24  1  0  0  0  0
 24 25  2  0  0  0  0
 25 26  1  0  0  0  0
 26 27  2  0  0  0  0
 27 22  1  0  0  0  0
M  CHG  1   5   1
M  END
> <ID>
L18

> <FEP+ dG (kcal/mol)>
-6.77

> <Experimental dG (kcal/mol)>
-8.54

> <System Name>
BACE

> <Similarity to L01 Reference (FCFP_4)>
0.416667

> <SMILES>
CN1C(N)=[NH+][C@@](C1=O)(c2cccc(c2)c3cccc(Cl)c3)c4ncccn4

> <Net Charge of Ligand in FEP/MELD>
1

$$$$
